
-------------------------------------------------------------------------
|    ___ _   _ ___                                                      |
|   / __| | | |_  )   Release 8.1.0 "Harrier"                           |
|   \__ \ |_| |/ /                                                      |
|   |___/\___//___|   Suite (Computational Fluid Dynamics Code)         |
|                                                                       |
-------------------------------------------------------------------------
| SU2 Project Website: https://su2code.github.io                        |
|                                                                       |
| The SU2 Project is maintained by the SU2 Foundation                   |
| (http://su2foundation.org)                                            |
-------------------------------------------------------------------------
| Copyright 2012-2024, SU2 Contributors                                 |
|                                                                       |
| SU2 is free software; you can redistribute it and/or                  |
| modify it under the terms of the GNU Lesser General Public            |
| License as published by the Free Software Foundation; either          |
| version 2.1 of the License, or (at your option) any later version.    |
|                                                                       |
| SU2 is distributed in the hope that it will be useful,                |
| but WITHOUT ANY WARRANTY; without even the implied warranty of        |
| MERCHANTABILITY or FITNESS FOR A PARTICULAR PURPOSE. See the GNU      |
| Lesser General Public License for more details.                       |
|                                                                       |
| You should have received a copy of the GNU Lesser General Public      |
| License along with SU2. If not, see <http://www.gnu.org/licenses/>.   |
-------------------------------------------------------------------------


Problem definition:

Compressible Euler equations.
Mach number: 0.3.
Angle of attack (AoA): 0 deg, and angle of sideslip (AoS): 0 deg.
Non-Dimensional simulation (V=1.0, Rho=1.0, T=1.0 at the farfield).
The reference area is 122.4 m^2.
The reference length is 4.193 m.


Problem definition:

Inviscid flow: Computing density based on free-stream
temperature and pressure using the ideal gas law.
Force coefficients computed using MACH_MOTION.
-- Input conditions:
Fluid Model: STANDARD_AIR 
Specific gas constant: 287.058 N.m/kg.K.
Specific gas constant (non-dim): 7.93651
Specific Heat Ratio: 1.4000 
Free-stream static pressure: 101325 Pa.
Free-stream total pressure: 107853 Pa.
Free-stream temperature: 288.15 K.
Free-stream total temperature: 293.337 K.
Free-stream density: 1.22498 kg/m^3.
Free-stream velocity: (102.089, 0, 0) m/s. Magnitude: 102.089 m/s.
Free-stream total energy per unit mass: 212000 m^2/s^2.
Total time: 0 s. Time step: 3.61103 s.
-- Reference values:
Reference specific gas constant: 36.1693 N.m/kg.K.
Reference pressure: 12767 Pa.
Reference temperature: 288.15 K.
Reference density: 1.22498 kg/m^3.
Reference velocity: 102.089 m/s.
Reference energy per unit mass: 10422.2 m^2/s^2.
Reference time: 0.00979536 s.
-- Resulting non-dimensional state:
Mach number (non-dim): 0.3
Specific gas constant (non-dim): 7.93651
Free-stream temperature (non-dim): 1
Free-stream pressure (non-dim): 7.93651
Free-stream density (non-dim): 1
Free-stream velocity (non-dim): (1, 0, 0). Magnitude: 1
Free-stream total energy per unit mass (non-dim): 20.3413
Total time (non-dim): 0
Time step (non-dim): 368.646


Forces breakdown:

Center of Pressure: X=-0.294000Z+16.746211 m.

NOTE: Multiply forces by the non-dimensional factor: 61.200000, and the reference factor: 12766.950000
to obtain the dimensional force.

Total CL:       0.203983 | Pressure (   99%):    0.203983 | Friction (    0%):    0.000000 | Momentum (    0%):    0.000000
Total CD:      -0.059971 | Pressure (  100%):   -0.059971 | Friction (    0%):    0.000000 | Momentum (    0%):    0.000000
Total CSF:      0.004821 | Pressure (   99%):    0.004821 | Friction (    0%):    0.000000 | Momentum (    0%):    0.000000
Total CL/CD:   -3.401358 | Pressure (  100%):   -3.401358 | Friction (    0%):    0.000000 | Momentum (    0%):    0.000000
Total CMx:     -0.001240 | Pressure (  100%):   -0.001240 | Friction (    0%):    0.000000 | Momentum (    0%):    0.000000
Total CMy:     -0.814677 | Pressure (  100%):   -0.814677 | Friction (    0%):    0.000000 | Momentum (    0%):    0.000000
Total CMz:      0.036777 | Pressure (   99%):    0.036777 | Friction (    0%):    0.000000 | Momentum (    0%):    0.000000
Total CFx:     -0.059971 | Pressure (  100%):   -0.059971 | Friction (    0%):    0.000000 | Momentum (    0%):    0.000000
Total CFy:      0.004821 | Pressure (   99%):    0.004821 | Friction (    0%):    0.000000 | Momentum (    0%):    0.000000
Total CFz:      0.203983 | Pressure (   99%):    0.203983 | Friction (    0%):    0.000000 | Momentum (    0%):    0.000000


Surface name: Fuselage1

Total CL    (   17%):    0.036215 | Pressure (   99%):    0.036215 | Friction (    0%):    0.000000 | Momentum (    0%):    0.000000
Total CD    (   22%):   -0.013280 | Pressure (  100%):   -0.013280 | Friction (    0%):    0.000000 | Momentum (    0%):    0.000000
Total CSF   (   33%):    0.001631 | Pressure (   99%):    0.001631 | Friction (    0%):    0.000000 | Momentum (    0%):    0.000000
Total CL/CD (   80%):   -2.727002 | Pressure (  100%):   -2.727002 | Friction (    0%):    0.000000 | Momentum (    0%):    0.000000
Total CMx   (    3%):   -0.000044 | Pressure (  100%):   -0.000044 | Friction (    0%):    0.000000 | Momentum (    0%):    0.000000
Total CMy   (   18%):   -0.153386 | Pressure (  100%):   -0.153386 | Friction (    0%):    0.000000 | Momentum (    0%):    0.000000
Total CMz   (   28%):    0.010589 | Pressure (   99%):    0.010589 | Friction (    0%):    0.000000 | Momentum (    0%):    0.000000
Total CFx   (   22%):   -0.013280 | Pressure (  100%):   -0.013280 | Friction (    0%):    0.000000 | Momentum (    0%):    0.000000
Total CFy   (   33%):    0.001631 | Pressure (   99%):    0.001631 | Friction (    0%):    0.000000 | Momentum (    0%):    0.000000
Total CFz   (   17%):    0.036215 | Pressure (   99%):    0.036215 | Friction (    0%):    0.000000 | Momentum (    0%):    0.000000

Surface name: Wing1_Seg1

Total CL    (    0%):   -0.001911 | Pressure (  100%):   -0.001911 | Friction (    0%):    0.000000 | Momentum (    0%):    0.000000
Total CD    (    0%):    0.000076 | Pressure (   99%):    0.000076 | Friction (    0%):    0.000000 | Momentum (    0%):    0.000000
Total CSF   (   -3%):   -0.000185 | Pressure (  100%):   -0.000185 | Friction (    0%):    0.000000 | Momentum (    0%):    0.000000
Total CL/CD (  737%):  -25.087008 | Pressure (  100%):  -25.087008 | Friction (    0%):    0.000000 | Momentum (    0%):    0.000000
Total CMx   (   59%):   -0.000740 | Pressure (  100%):   -0.000740 | Friction (    0%):    0.000000 | Momentum (    0%):    0.000000
Total CMy   (    0%):    0.006060 | Pressure (   99%):    0.006060 | Friction (    0%):    0.000000 | Momentum (    0%):    0.000000
Total CMz   (   -2%):   -0.000847 | Pressure (  100%):   -0.000847 | Friction (    0%):    0.000000 | Momentum (    0%):    0.000000
Total CFx   (    0%):    0.000076 | Pressure (   99%):    0.000076 | Friction (    0%):    0.000000 | Momentum (    0%):    0.000000
Total CFy   (   -3%):   -0.000185 | Pressure (  100%):   -0.000185 | Friction (    0%):    0.000000 | Momentum (    0%):    0.000000
Total CFz   (    0%):   -0.001911 | Pressure (  100%):   -0.001911 | Friction (    0%):    0.000000 | Momentum (    0%):    0.000000

Surface name: Wing1_Seg1_mirrored

Total CL    (    0%):   -0.001838 | Pressure (  100%):   -0.001838 | Friction (    0%):    0.000000 | Momentum (    0%):    0.000000
Total CD    (    0%):    0.000066 | Pressure (   99%):    0.000066 | Friction (    0%):    0.000000 | Momentum (    0%):    0.000000
Total CSF   (    4%):    0.000199 | Pressure (   99%):    0.000199 | Friction (    0%):    0.000000 | Momentum (    0%):    0.000000
Total CL/CD (  821%):  -27.947003 | Pressure (  100%):  -27.947003 | Friction (    0%):    0.000000 | Momentum (    0%):    0.000000
Total CMx   (  -57%):    0.000718 | Pressure (   99%):    0.000718 | Friction (    0%):    0.000000 | Momentum (    0%):    0.000000
Total CMy   (    0%):    0.005792 | Pressure (   99%):    0.005792 | Friction (    0%):    0.000000 | Momentum (    0%):    0.000000
Total CMz   (    2%):    0.000902 | Pressure (   99%):    0.000902 | Friction (    0%):    0.000000 | Momentum (    0%):    0.000000
Total CFx   (    0%):    0.000066 | Pressure (   99%):    0.000066 | Friction (    0%):    0.000000 | Momentum (    0%):    0.000000
Total CFy   (    4%):    0.000199 | Pressure (   99%):    0.000199 | Friction (    0%):    0.000000 | Momentum (    0%):    0.000000
Total CFz   (    0%):   -0.001838 | Pressure (  100%):   -0.001838 | Friction (    0%):    0.000000 | Momentum (    0%):    0.000000

Surface name: Wing1_Seg2

Total CL    (   15%):    0.030628 | Pressure (   99%):    0.030628 | Friction (    0%):    0.000000 | Momentum (    0%):    0.000000
Total CD    (   17%):   -0.010261 | Pressure (  100%):   -0.010261 | Friction (    0%):    0.000000 | Momentum (    0%):    0.000000
Total CSF   (   74%):    0.003597 | Pressure (   99%):    0.003597 | Friction (    0%):    0.000000 | Momentum (    0%):    0.000000
Total CL/CD (   87%):   -2.984908 | Pressure (  100%):   -2.984908 | Friction (    0%):    0.000000 | Momentum (    0%):    0.000000
Total CMx   (-2406%):    0.029839 | Pressure (   99%):    0.029839 | Friction (    0%):    0.000000 | Momentum (    0%):    0.000000
Total CMy   (   12%):   -0.103236 | Pressure (  100%):   -0.103236 | Friction (    0%):    0.000000 | Momentum (    0%):    0.000000
Total CMz   (   64%):    0.023664 | Pressure (   99%):    0.023664 | Friction (    0%):    0.000000 | Momentum (    0%):    0.000000
Total CFx   (   17%):   -0.010261 | Pressure (  100%):   -0.010261 | Friction (    0%):    0.000000 | Momentum (    0%):    0.000000
Total CFy   (   74%):    0.003597 | Pressure (   99%):    0.003597 | Friction (    0%):    0.000000 | Momentum (    0%):    0.000000
Total CFz   (   15%):    0.030628 | Pressure (   99%):    0.030628 | Friction (    0%):    0.000000 | Momentum (    0%):    0.000000

Surface name: Wing1_Seg2_mirrored

Total CL    (   15%):    0.031232 | Pressure (   99%):    0.031232 | Friction (    0%):    0.000000 | Momentum (    0%):    0.000000
Total CD    (   16%):   -0.010116 | Pressure (  100%):   -0.010116 | Friction (    0%):    0.000000 | Momentum (    0%):    0.000000
Total CSF   (  -71%):   -0.003433 | Pressure (  100%):   -0.003433 | Friction (    0%):    0.000000 | Momentum (    0%):    0.000000
Total CL/CD (   90%):   -3.087456 | Pressure (  100%):   -3.087456 | Friction (    0%):    0.000000 | Momentum (    0%):    0.000000
Total CMx   ( 2464%):   -0.030561 | Pressure (  100%):   -0.030561 | Friction (    0%):    0.000000 | Momentum (    0%):    0.000000
Total CMy   (   12%):   -0.105794 | Pressure (  100%):   -0.105794 | Friction (    0%):    0.000000 | Momentum (    0%):    0.000000
Total CMz   (  -62%):   -0.022891 | Pressure (  100%):   -0.022891 | Friction (    0%):    0.000000 | Momentum (    0%):    0.000000
Total CFx   (   16%):   -0.010116 | Pressure (  100%):   -0.010116 | Friction (    0%):    0.000000 | Momentum (    0%):    0.000000
Total CFy   (  -71%):   -0.003433 | Pressure (  100%):   -0.003433 | Friction (    0%):    0.000000 | Momentum (    0%):    0.000000
Total CFz   (   15%):    0.031232 | Pressure (   99%):    0.031232 | Friction (    0%):    0.000000 | Momentum (    0%):    0.000000

Surface name: Wing1_Seg3

Total CL    (   20%):    0.041669 | Pressure (   99%):    0.041669 | Friction (    0%):    0.000000 | Momentum (    0%):    0.000000
Total CD    (   18%):   -0.011040 | Pressure (  100%):   -0.011040 | Friction (    0%):    0.000000 | Momentum (    0%):    0.000000
Total CSF   (   63%):    0.003063 | Pressure (   99%):    0.003063 | Friction (    0%):    0.000000 | Momentum (    0%):    0.000000
Total CL/CD (  110%):   -3.774536 | Pressure (  100%):   -3.774536 | Friction (    0%):    0.000000 | Momentum (    0%):    0.000000
Total CMx   (-8586%):    0.106472 | Pressure (   99%):    0.106472 | Friction (    0%):    0.000000 | Momentum (    0%):    0.000000
Total CMy   (   21%):   -0.175088 | Pressure (  100%):   -0.175088 | Friction (    0%):    0.000000 | Momentum (    0%):    0.000000
Total CMz   (  118%):    0.043474 | Pressure (   99%):    0.043474 | Friction (    0%):    0.000000 | Momentum (    0%):    0.000000
Total CFx   (   18%):   -0.011040 | Pressure (  100%):   -0.011040 | Friction (    0%):    0.000000 | Momentum (    0%):    0.000000
Total CFy   (   63%):    0.003063 | Pressure (   99%):    0.003063 | Friction (    0%):    0.000000 | Momentum (    0%):    0.000000
Total CFz   (   20%):    0.041669 | Pressure (   99%):    0.041669 | Friction (    0%):    0.000000 | Momentum (    0%):    0.000000

Surface name: Wing1_Seg3_mirrored

Total CL    (   20%):    0.040871 | Pressure (   99%):    0.040871 | Friction (    0%):    0.000000 | Momentum (    0%):    0.000000
Total CD    (   18%):   -0.011326 | Pressure (  100%):   -0.011326 | Friction (    0%):    0.000000 | Momentum (    0%):    0.000000
Total CSF   (  -66%):   -0.003197 | Pressure (  100%):   -0.003197 | Friction (    0%):    0.000000 | Momentum (    0%):    0.000000
Total CL/CD (  106%):   -3.608446 | Pressure (  100%):   -3.608446 | Friction (    0%):    0.000000 | Momentum (    0%):    0.000000
Total CMx   ( 8408%):   -0.104265 | Pressure (  100%):   -0.104265 | Friction (    0%):    0.000000 | Momentum (    0%):    0.000000
Total CMy   (   21%):   -0.171291 | Pressure (  100%):   -0.171291 | Friction (    0%):    0.000000 | Momentum (    0%):    0.000000
Total CMz   ( -121%):   -0.044773 | Pressure (  100%):   -0.044773 | Friction (    0%):    0.000000 | Momentum (    0%):    0.000000
Total CFx   (   18%):   -0.011326 | Pressure (  100%):   -0.011326 | Friction (    0%):    0.000000 | Momentum (    0%):    0.000000
Total CFy   (  -66%):   -0.003197 | Pressure (  100%):   -0.003197 | Friction (    0%):    0.000000 | Momentum (    0%):    0.000000
Total CFz   (   20%):    0.040871 | Pressure (   99%):    0.040871 | Friction (    0%):    0.000000 | Momentum (    0%):    0.000000

Surface name: Wing2H_Seg1

Total CL    (   -1%):   -0.003577 | Pressure (  100%):   -0.003577 | Friction (    0%):    0.000000 | Momentum (    0%):    0.000000
Total CD    (    6%):   -0.003934 | Pressure (  100%):   -0.003934 | Friction (    0%):    0.000000 | Momentum (    0%):    0.000000
Total CSF   (   56%):    0.002738 | Pressure (   99%):    0.002738 | Friction (    0%):    0.000000 | Momentum (    0%):    0.000000
Total CL/CD (  -26%):    0.909113 | Pressure (   99%):    0.909113 | Friction (    0%):    0.000000 | Momentum (    0%):    0.000000
Total CMx   (  213%):   -0.002646 | Pressure (  100%):   -0.002646 | Friction (    0%):    0.000000 | Momentum (    0%):    0.000000
Total CMy   (   -3%):    0.027868 | Pressure (   99%):    0.027868 | Friction (    0%):    0.000000 | Momentum (    0%):    0.000000
Total CMz   (   69%):    0.025582 | Pressure (   99%):    0.025582 | Friction (    0%):    0.000000 | Momentum (    0%):    0.000000
Total CFx   (    6%):   -0.003934 | Pressure (  100%):   -0.003934 | Friction (    0%):    0.000000 | Momentum (    0%):    0.000000
Total CFy   (   56%):    0.002738 | Pressure (   99%):    0.002738 | Friction (    0%):    0.000000 | Momentum (    0%):    0.000000
Total CFz   (   -1%):   -0.003577 | Pressure (  100%):   -0.003577 | Friction (    0%):    0.000000 | Momentum (    0%):    0.000000

Surface name: Wing2H_Seg1_mirrored

Total CL    (   -2%):   -0.004731 | Pressure (  100%):   -0.004731 | Friction (    0%):    0.000000 | Momentum (    0%):    0.000000
Total CD    (    6%):   -0.003871 | Pressure (  100%):   -0.003871 | Friction (    0%):    0.000000 | Momentum (    0%):    0.000000
Total CSF   (  -57%):   -0.002752 | Pressure (  100%):   -0.002752 | Friction (    0%):    0.000000 | Momentum (    0%):    0.000000
Total CL/CD (  -35%):    1.222307 | Pressure (  100%):    1.222307 | Friction (    0%):    0.000000 | Momentum (    0%):    0.000000
Total CMx   ( -291%):    0.003610 | Pressure (   99%):    0.003610 | Friction (    0%):    0.000000 | Momentum (    0%):    0.000000
Total CMy   (   -4%):    0.037580 | Pressure (   99%):    0.037580 | Friction (    0%):    0.000000 | Momentum (    0%):    0.000000
Total CMz   (  -69%):   -0.025622 | Pressure (  100%):   -0.025622 | Friction (    0%):    0.000000 | Momentum (    0%):    0.000000
Total CFx   (    6%):   -0.003871 | Pressure (  100%):   -0.003871 | Friction (    0%):    0.000000 | Momentum (    0%):    0.000000
Total CFy   (  -57%):   -0.002752 | Pressure (  100%):   -0.002752 | Friction (    0%):    0.000000 | Momentum (    0%):    0.000000
Total CFz   (   -2%):   -0.004731 | Pressure (  100%):   -0.004731 | Friction (    0%):    0.000000 | Momentum (    0%):    0.000000

Surface name: Wing3V_Seg1

Total CL    (    1%):    0.003023 | Pressure (   99%):    0.003023 | Friction (    0%):    0.000000 | Momentum (    0%):    0.000000
Total CD    (    6%):   -0.003719 | Pressure (  100%):   -0.003719 | Friction (    0%):    0.000000 | Momentum (    0%):    0.000000
Total CSF   ( -380%):   -0.018340 | Pressure (  100%):   -0.018340 | Friction (    0%):    0.000000 | Momentum (    0%):    0.000000
Total CL/CD (   23%):   -0.812861 | Pressure (  100%):   -0.812861 | Friction (    0%):    0.000000 | Momentum (    0%):    0.000000
Total CMx   (-1246%):    0.015459 | Pressure (   99%):    0.015459 | Friction (    0%):    0.000000 | Momentum (    0%):    0.000000
Total CMy   (    3%):   -0.027829 | Pressure (  100%):   -0.027829 | Friction (    0%):    0.000000 | Momentum (    0%):    0.000000
Total CMz   ( -388%):   -0.142917 | Pressure (  100%):   -0.142917 | Friction (    0%):    0.000000 | Momentum (    0%):    0.000000
Total CFx   (    6%):   -0.003719 | Pressure (  100%):   -0.003719 | Friction (    0%):    0.000000 | Momentum (    0%):    0.000000
Total CFy   ( -380%):   -0.018340 | Pressure (  100%):   -0.018340 | Friction (    0%):    0.000000 | Momentum (    0%):    0.000000
Total CFz   (    1%):    0.003023 | Pressure (   99%):    0.003023 | Friction (    0%):    0.000000 | Momentum (    0%):    0.000000

Surface name: Wing3V_Seg1_mirrored

Total CL    (    1%):    0.003456 | Pressure (   99%):    0.003456 | Friction (    0%):    0.000000 | Momentum (    0%):    0.000000
Total CD    (    7%):   -0.004352 | Pressure (  100%):   -0.004352 | Friction (    0%):    0.000000 | Momentum (    0%):    0.000000
Total CSF   (  397%):    0.019149 | Pressure (   99%):    0.019149 | Friction (    0%):    0.000000 | Momentum (    0%):    0.000000
Total CL/CD (   23%):   -0.794060 | Pressure (  100%):   -0.794060 | Friction (    0%):    0.000000 | Momentum (    0%):    0.000000
Total CMx   ( 1330%):   -0.016496 | Pressure (  100%):   -0.016496 | Friction (    0%):    0.000000 | Momentum (    0%):    0.000000
Total CMy   (    3%):   -0.031920 | Pressure (  100%):   -0.031920 | Friction (    0%):    0.000000 | Momentum (    0%):    0.000000
Total CMz   (  405%):    0.149137 | Pressure (   99%):    0.149137 | Friction (    0%):    0.000000 | Momentum (    0%):    0.000000
Total CFx   (    7%):   -0.004352 | Pressure (  100%):   -0.004352 | Friction (    0%):    0.000000 | Momentum (    0%):    0.000000
Total CFy   (  397%):    0.019149 | Pressure (   99%):    0.019149 | Friction (    0%):    0.000000 | Momentum (    0%):    0.000000
Total CFz   (    1%):    0.003456 | Pressure (   99%):    0.003456 | Friction (    0%):    0.000000 | Momentum (    0%):    0.000000

Surface name: left_plain_aileron_Wing1_Seg3

Total CL    (    2%):    0.006050 | Pressure (   99%):    0.006050 | Friction (    0%):    0.000000 | Momentum (    0%):    0.000000
Total CD    (   -6%):    0.003756 | Pressure (   99%):    0.003756 | Friction (    0%):    0.000000 | Momentum (    0%):    0.000000
Total CSF   (   37%):    0.001821 | Pressure (   99%):    0.001821 | Friction (    0%):    0.000000 | Momentum (    0%):    0.000000
Total CL/CD (  -47%):    1.610735 | Pressure (  100%):    1.610735 | Friction (    0%):    0.000000 | Momentum (    0%):    0.000000
Total CMx   ( 1147%):   -0.014227 | Pressure (  100%):   -0.014227 | Friction (    0%):    0.000000 | Momentum (    0%):    0.000000
Total CMy   (    3%):   -0.028918 | Pressure (  100%):   -0.028918 | Friction (    0%):    0.000000 | Momentum (    0%):    0.000000
Total CMz   (   46%):    0.017161 | Pressure (   99%):    0.017161 | Friction (    0%):    0.000000 | Momentum (    0%):    0.000000
Total CFx   (   -6%):    0.003756 | Pressure (   99%):    0.003756 | Friction (    0%):    0.000000 | Momentum (    0%):    0.000000
Total CFy   (   37%):    0.001821 | Pressure (   99%):    0.001821 | Friction (    0%):    0.000000 | Momentum (    0%):    0.000000
Total CFz   (    2%):    0.006050 | Pressure (   99%):    0.006050 | Friction (    0%):    0.000000 | Momentum (    0%):    0.000000

Surface name: plain_flap_Wing1_Seg2

Total CL    (    5%):    0.010232 | Pressure (   99%):    0.010232 | Friction (    0%):    0.000000 | Momentum (    0%):    0.000000
Total CD    (   -1%):    0.000617 | Pressure (   99%):    0.000617 | Friction (    0%):    0.000000 | Momentum (    0%):    0.000000
Total CSF   (  -17%):   -0.000832 | Pressure (  100%):   -0.000832 | Friction (    0%):    0.000000 | Momentum (    0%):    0.000000
Total CL/CD ( -487%):   16.587196 | Pressure (  100%):   16.587196 | Friction (    0%):    0.000000 | Momentum (    0%):    0.000000
Total CMx   ( -763%):    0.009463 | Pressure (   99%):    0.009463 | Friction (    0%):    0.000000 | Momentum (    0%):    0.000000
Total CMy   (    5%):   -0.044293 | Pressure (  100%):   -0.044293 | Friction (    0%):    0.000000 | Momentum (    0%):    0.000000
Total CMz   (  -11%):   -0.004056 | Pressure (  100%):   -0.004056 | Friction (    0%):    0.000000 | Momentum (    0%):    0.000000
Total CFx   (   -1%):    0.000617 | Pressure (   99%):    0.000617 | Friction (    0%):    0.000000 | Momentum (    0%):    0.000000
Total CFy   (  -17%):   -0.000832 | Pressure (  100%):   -0.000832 | Friction (    0%):    0.000000 | Momentum (    0%):    0.000000
Total CFz   (    5%):    0.010232 | Pressure (   99%):    0.010232 | Friction (    0%):    0.000000 | Momentum (    0%):    0.000000

Surface name: plain_flap_Wing1_Seg2_mirrored

Total CL    (    4%):    0.008707 | Pressure (   99%):    0.008707 | Friction (    0%):    0.000000 | Momentum (    0%):    0.000000
Total CD    (   -1%):    0.001051 | Pressure (   99%):    0.001051 | Friction (    0%):    0.000000 | Momentum (    0%):    0.000000
Total CSF   (   15%):    0.000741 | Pressure (   99%):    0.000741 | Friction (    0%):    0.000000 | Momentum (    0%):    0.000000
Total CL/CD ( -243%):    8.286770 | Pressure (  100%):    8.286770 | Friction (    0%):    0.000000 | Momentum (    0%):    0.000000
Total CMx   (  676%):   -0.008387 | Pressure (  100%):   -0.008387 | Friction (    0%):    0.000000 | Momentum (    0%):    0.000000
Total CMy   (    4%):   -0.037856 | Pressure (  100%):   -0.037856 | Friction (    0%):    0.000000 | Momentum (    0%):    0.000000
Total CMz   (   11%):    0.004136 | Pressure (   99%):    0.004136 | Friction (    0%):    0.000000 | Momentum (    0%):    0.000000
Total CFx   (   -1%):    0.001051 | Pressure (   99%):    0.001051 | Friction (    0%):    0.000000 | Momentum (    0%):    0.000000
Total CFy   (   15%):    0.000741 | Pressure (   99%):    0.000741 | Friction (    0%):    0.000000 | Momentum (    0%):    0.000000
Total CFz   (    4%):    0.008707 | Pressure (   99%):    0.008707 | Friction (    0%):    0.000000 | Momentum (    0%):    0.000000

Surface name: plain_rudder_Wing3V_Seg1

Total CL    (    0%):   -0.001352 | Pressure (  100%):   -0.001352 | Friction (    0%):    0.000000 | Momentum (    0%):    0.000000
Total CD    (   -4%):    0.002498 | Pressure (   99%):    0.002498 | Friction (    0%):    0.000000 | Momentum (    0%):    0.000000
Total CSF   (   49%):    0.002367 | Pressure (   99%):    0.002367 | Friction (    0%):    0.000000 | Momentum (    0%):    0.000000
Total CL/CD (   15%):   -0.541175 | Pressure (  100%):   -0.541175 | Friction (    0%):    0.000000 | Momentum (    0%):    0.000000
Total CMx   (  176%):   -0.002187 | Pressure (  100%):   -0.002187 | Friction (    0%):    0.000000 | Momentum (    0%):    0.000000
Total CMy   (   -1%):    0.013242 | Pressure (   99%):    0.013242 | Friction (    0%):    0.000000 | Momentum (    0%):    0.000000
Total CMz   (   55%):    0.020270 | Pressure (   99%):    0.020270 | Friction (    0%):    0.000000 | Momentum (    0%):    0.000000
Total CFx   (   -4%):    0.002498 | Pressure (   99%):    0.002498 | Friction (    0%):    0.000000 | Momentum (    0%):    0.000000
Total CFy   (   49%):    0.002367 | Pressure (   99%):    0.002367 | Friction (    0%):    0.000000 | Momentum (    0%):    0.000000
Total CFz   (    0%):   -0.001352 | Pressure (  100%):   -0.001352 | Friction (    0%):    0.000000 | Momentum (    0%):    0.000000

Surface name: right_plain_aileron_Wing1_Seg3

Total CL    (    2%):    0.005308 | Pressure (   99%):    0.005308 | Friction (    0%):    0.000000 | Momentum (    0%):    0.000000
Total CD    (   -6%):    0.003864 | Pressure (   99%):    0.003864 | Friction (    0%):    0.000000 | Momentum (    0%):    0.000000
Total CSF   (  -36%):   -0.001744 | Pressure (  100%):   -0.001744 | Friction (    0%):    0.000000 | Momentum (    0%):    0.000000
Total CL/CD (  -40%):    1.373587 | Pressure (   99%):    1.373587 | Friction (    0%):    0.000000 | Momentum (    0%):    0.000000
Total CMx   (-1028%):    0.012751 | Pressure (   99%):    0.012751 | Friction (    0%):    0.000000 | Momentum (    0%):    0.000000
Total CMy   (    3%):   -0.025606 | Pressure (  100%):   -0.025606 | Friction (    0%):    0.000000 | Momentum (    0%):    0.000000
Total CMz   (  -46%):   -0.017033 | Pressure (  100%):   -0.017033 | Friction (    0%):    0.000000 | Momentum (    0%):    0.000000
Total CFx   (   -6%):    0.003864 | Pressure (   99%):    0.003864 | Friction (    0%):    0.000000 | Momentum (    0%):    0.000000
Total CFy   (  -36%):   -0.001744 | Pressure (  100%):   -0.001744 | Friction (    0%):    0.000000 | Momentum (    0%):    0.000000
Total CFz   (    2%):    0.005308 | Pressure (   99%):    0.005308 | Friction (    0%):    0.000000 | Momentum (    0%):    0.000000

