
-------------------------------------------------------------------------
|    ___ _   _ ___                                                      |
|   / __| | | |_  )   Release 8.1.0 "Harrier"                           |
|   \__ \ |_| |/ /                                                      |
|   |___/\___//___|   Suite (Computational Fluid Dynamics Code)         |
|                                                                       |
-------------------------------------------------------------------------
| SU2 Project Website: https://su2code.github.io                        |
|                                                                       |
| The SU2 Project is maintained by the SU2 Foundation                   |
| (http://su2foundation.org)                                            |
-------------------------------------------------------------------------
| Copyright 2012-2024, SU2 Contributors                                 |
|                                                                       |
| SU2 is free software; you can redistribute it and/or                  |
| modify it under the terms of the GNU Lesser General Public            |
| License as published by the Free Software Foundation; either          |
| version 2.1 of the License, or (at your option) any later version.    |
|                                                                       |
| SU2 is distributed in the hope that it will be useful,                |
| but WITHOUT ANY WARRANTY; without even the implied warranty of        |
| MERCHANTABILITY or FITNESS FOR A PARTICULAR PURPOSE. See the GNU      |
| Lesser General Public License for more details.                       |
|                                                                       |
| You should have received a copy of the GNU Lesser General Public      |
| License along with SU2. If not, see <http://www.gnu.org/licenses/>.   |
-------------------------------------------------------------------------


Problem definition:

Compressible Euler equations.
Mach number: 0.3.
Angle of attack (AoA): 0 deg, and angle of sideslip (AoS): 0 deg.
Non-Dimensional simulation (V=1.0, Rho=1.0, T=1.0 at the farfield).
The reference area is 122.4 m^2.
The reference length is 4.193 m.


Problem definition:

Inviscid flow: Computing density based on free-stream
temperature and pressure using the ideal gas law.
Force coefficients computed using MACH_MOTION.
-- Input conditions:
Fluid Model: STANDARD_AIR 
Specific gas constant: 287.058 N.m/kg.K.
Specific gas constant (non-dim): 7.93651
Specific Heat Ratio: 1.4000 
Free-stream static pressure: 101325 Pa.
Free-stream total pressure: 107853 Pa.
Free-stream temperature: 288.15 K.
Free-stream total temperature: 293.337 K.
Free-stream density: 1.22498 kg/m^3.
Free-stream velocity: (102.089, 0, 0) m/s. Magnitude: 102.089 m/s.
Free-stream total energy per unit mass: 212000 m^2/s^2.
Total time: 0 s. Time step: 3.61103 s.
-- Reference values:
Reference specific gas constant: 36.1693 N.m/kg.K.
Reference pressure: 12767 Pa.
Reference temperature: 288.15 K.
Reference density: 1.22498 kg/m^3.
Reference velocity: 102.089 m/s.
Reference energy per unit mass: 10422.2 m^2/s^2.
Reference time: 0.00979536 s.
-- Resulting non-dimensional state:
Mach number (non-dim): 0.3
Specific gas constant (non-dim): 7.93651
Free-stream temperature (non-dim): 1
Free-stream pressure (non-dim): 7.93651
Free-stream density (non-dim): 1
Free-stream velocity (non-dim): (1, 0, 0). Magnitude: 1
Free-stream total energy per unit mass (non-dim): 20.3413
Total time (non-dim): 0
Time step (non-dim): 368.646


Forces breakdown:

Center of Pressure: X=-0.710758Z+15.165845 m.

NOTE: Multiply forces by the non-dimensional factor: 61.200000, and the reference factor: 12766.950000
to obtain the dimensional force.

Total CL:       0.088778 | Pressure (   99%):    0.088778 | Friction (    0%):    0.000000 | Momentum (    0%):    0.000000
Total CD:      -0.063100 | Pressure (  100%):   -0.063100 | Friction (    0%):    0.000000 | Momentum (    0%):    0.000000
Total CSF:      0.004547 | Pressure (   99%):    0.004547 | Friction (    0%):    0.000000 | Momentum (    0%):    0.000000
Total CL/CD:   -1.406948 | Pressure (  100%):   -1.406948 | Friction (    0%):    0.000000 | Momentum (    0%):    0.000000
Total CMx:     -0.000308 | Pressure (  100%):   -0.000308 | Friction (    0%):    0.000000 | Momentum (    0%):    0.000000
Total CMy:     -0.321106 | Pressure (  100%):   -0.321106 | Friction (    0%):    0.000000 | Momentum (    0%):    0.000000
Total CMz:      0.033827 | Pressure (   99%):    0.033827 | Friction (    0%):    0.000000 | Momentum (    0%):    0.000000
Total CFx:     -0.063100 | Pressure (  100%):   -0.063100 | Friction (    0%):    0.000000 | Momentum (    0%):    0.000000
Total CFy:      0.004547 | Pressure (   99%):    0.004547 | Friction (    0%):    0.000000 | Momentum (    0%):    0.000000
Total CFz:      0.088778 | Pressure (   99%):    0.088778 | Friction (    0%):    0.000000 | Momentum (    0%):    0.000000


Surface name: Fuselage1

Total CL    (   25%):    0.022971 | Pressure (   99%):    0.022971 | Friction (    0%):    0.000000 | Momentum (    0%):    0.000000
Total CD    (   21%):   -0.013747 | Pressure (  100%):   -0.013747 | Friction (    0%):    0.000000 | Momentum (    0%):    0.000000
Total CSF   (   39%):    0.001813 | Pressure (   99%):    0.001813 | Friction (    0%):    0.000000 | Momentum (    0%):    0.000000
Total CL/CD (  118%):   -1.670973 | Pressure (  100%):   -1.670973 | Friction (    0%):    0.000000 | Momentum (    0%):    0.000000
Total CMx   (   53%):   -0.000165 | Pressure (  100%):   -0.000165 | Friction (    0%):    0.000000 | Momentum (    0%):    0.000000
Total CMy   (   35%):   -0.114366 | Pressure (  100%):   -0.114366 | Friction (    0%):    0.000000 | Momentum (    0%):    0.000000
Total CMz   (   34%):    0.011740 | Pressure (   99%):    0.011740 | Friction (    0%):    0.000000 | Momentum (    0%):    0.000000
Total CFx   (   21%):   -0.013747 | Pressure (  100%):   -0.013747 | Friction (    0%):    0.000000 | Momentum (    0%):    0.000000
Total CFy   (   39%):    0.001813 | Pressure (   99%):    0.001813 | Friction (    0%):    0.000000 | Momentum (    0%):    0.000000
Total CFz   (   25%):    0.022971 | Pressure (   99%):    0.022971 | Friction (    0%):    0.000000 | Momentum (    0%):    0.000000

Surface name: Wing1_Seg1

Total CL    (   -3%):   -0.002788 | Pressure (  100%):   -0.002788 | Friction (    0%):    0.000000 | Momentum (    0%):    0.000000
Total CD    (    0%):    0.000013 | Pressure (   99%):    0.000013 | Friction (    0%):    0.000000 | Momentum (    0%):    0.000000
Total CSF   (   -4%):   -0.000194 | Pressure (  100%):   -0.000194 | Friction (    0%):    0.000000 | Momentum (    0%):    0.000000
Total CL/CD (15400%): -216.678661 | Pressure (  100%): -216.678661 | Friction (    0%):    0.000000 | Momentum (    0%):    0.000000
Total CMx   (  348%):   -0.001074 | Pressure (  100%):   -0.001074 | Friction (    0%):    0.000000 | Momentum (    0%):    0.000000
Total CMy   (   -2%):    0.009160 | Pressure (   99%):    0.009160 | Friction (    0%):    0.000000 | Momentum (    0%):    0.000000
Total CMz   (   -2%):   -0.000853 | Pressure (  100%):   -0.000853 | Friction (    0%):    0.000000 | Momentum (    0%):    0.000000
Total CFx   (    0%):    0.000013 | Pressure (   99%):    0.000013 | Friction (    0%):    0.000000 | Momentum (    0%):    0.000000
Total CFy   (   -4%):   -0.000194 | Pressure (  100%):   -0.000194 | Friction (    0%):    0.000000 | Momentum (    0%):    0.000000
Total CFz   (   -3%):   -0.002788 | Pressure (  100%):   -0.002788 | Friction (    0%):    0.000000 | Momentum (    0%):    0.000000

Surface name: Wing1_Seg1_mirrored

Total CL    (   -3%):   -0.002712 | Pressure (  100%):   -0.002712 | Friction (    0%):    0.000000 | Momentum (    0%):    0.000000
Total CD    (    0%):    0.000003 | Pressure (   99%):    0.000003 | Friction (    0%):    0.000000 | Momentum (    0%):    0.000000
Total CSF   (    4%):    0.000201 | Pressure (   99%):    0.000201 | Friction (    0%):    0.000000 | Momentum (    0%):    0.000000
Total CL/CD (65107%): -916.027962 | Pressure (  100%): -916.027962 | Friction (    0%):    0.000000 | Momentum (    0%):    0.000000
Total CMx   ( -340%):    0.001049 | Pressure (   99%):    0.001049 | Friction (    0%):    0.000000 | Momentum (    0%):    0.000000
Total CMy   (   -2%):    0.008876 | Pressure (   99%):    0.008876 | Friction (    0%):    0.000000 | Momentum (    0%):    0.000000
Total CMz   (    2%):    0.000882 | Pressure (   99%):    0.000882 | Friction (    0%):    0.000000 | Momentum (    0%):    0.000000
Total CFx   (    0%):    0.000003 | Pressure (   99%):    0.000003 | Friction (    0%):    0.000000 | Momentum (    0%):    0.000000
Total CFy   (    4%):    0.000201 | Pressure (   99%):    0.000201 | Friction (    0%):    0.000000 | Momentum (    0%):    0.000000
Total CFz   (   -3%):   -0.002712 | Pressure (  100%):   -0.002712 | Friction (    0%):    0.000000 | Momentum (    0%):    0.000000

Surface name: Wing1_Seg2

Total CL    (   14%):    0.013159 | Pressure (   99%):    0.013159 | Friction (    0%):    0.000000 | Momentum (    0%):    0.000000
Total CD    (   16%):   -0.010578 | Pressure (  100%):   -0.010578 | Friction (    0%):    0.000000 | Momentum (    0%):    0.000000
Total CSF   (  101%):    0.004617 | Pressure (   99%):    0.004617 | Friction (    0%):    0.000000 | Momentum (    0%):    0.000000
Total CL/CD (   88%):   -1.244063 | Pressure (  100%):   -1.244063 | Friction (    0%):    0.000000 | Momentum (    0%):    0.000000
Total CMx   (-4338%):    0.013364 | Pressure (   99%):    0.013364 | Friction (    0%):    0.000000 | Momentum (    0%):    0.000000
Total CMy   (   12%):   -0.040892 | Pressure (  100%):   -0.040892 | Friction (    0%):    0.000000 | Momentum (    0%):    0.000000
Total CMz   (   82%):    0.027754 | Pressure (   99%):    0.027754 | Friction (    0%):    0.000000 | Momentum (    0%):    0.000000
Total CFx   (   16%):   -0.010578 | Pressure (  100%):   -0.010578 | Friction (    0%):    0.000000 | Momentum (    0%):    0.000000
Total CFy   (  101%):    0.004617 | Pressure (   99%):    0.004617 | Friction (    0%):    0.000000 | Momentum (    0%):    0.000000
Total CFz   (   14%):    0.013159 | Pressure (   99%):    0.013159 | Friction (    0%):    0.000000 | Momentum (    0%):    0.000000

Surface name: Wing1_Seg2_mirrored

Total CL    (   15%):    0.013662 | Pressure (   99%):    0.013662 | Friction (    0%):    0.000000 | Momentum (    0%):    0.000000
Total CD    (   16%):   -0.010488 | Pressure (  100%):   -0.010488 | Friction (    0%):    0.000000 | Momentum (    0%):    0.000000
Total CSF   (  -98%):   -0.004487 | Pressure (  100%):   -0.004487 | Friction (    0%):    0.000000 | Momentum (    0%):    0.000000
Total CL/CD (   92%):   -1.302683 | Pressure (   99%):   -1.302683 | Friction (    0%):    0.000000 | Momentum (    0%):    0.000000
Total CMx   ( 4542%):   -0.013990 | Pressure (  100%):   -0.013990 | Friction (    0%):    0.000000 | Momentum (    0%):    0.000000
Total CMy   (   13%):   -0.043043 | Pressure (  100%):   -0.043043 | Friction (    0%):    0.000000 | Momentum (    0%):    0.000000
Total CMz   (  -80%):   -0.027169 | Pressure (  100%):   -0.027169 | Friction (    0%):    0.000000 | Momentum (    0%):    0.000000
Total CFx   (   16%):   -0.010488 | Pressure (  100%):   -0.010488 | Friction (    0%):    0.000000 | Momentum (    0%):    0.000000
Total CFy   (  -98%):   -0.004487 | Pressure (  100%):   -0.004487 | Friction (    0%):    0.000000 | Momentum (    0%):    0.000000
Total CFz   (   15%):    0.013662 | Pressure (   99%):    0.013662 | Friction (    0%):    0.000000 | Momentum (    0%):    0.000000

Surface name: Wing1_Seg3

Total CL    (   20%):    0.018213 | Pressure (   99%):    0.018213 | Friction (    0%):    0.000000 | Momentum (    0%):    0.000000
Total CD    (   18%):   -0.011841 | Pressure (  100%):   -0.011841 | Friction (    0%):    0.000000 | Momentum (    0%):    0.000000
Total CSF   (  102%):    0.004673 | Pressure (   99%):    0.004673 | Friction (    0%):    0.000000 | Momentum (    0%):    0.000000
Total CL/CD (  109%):   -1.538104 | Pressure (  100%):   -1.538104 | Friction (    0%):    0.000000 | Momentum (    0%):    0.000000
Total CMx   (-15402%):    0.047441 | Pressure (   99%):    0.047441 | Friction (    0%):    0.000000 | Momentum (    0%):    0.000000
Total CMy   (   23%):   -0.074979 | Pressure (  100%):   -0.074979 | Friction (    0%):    0.000000 | Momentum (    0%):    0.000000
Total CMz   (  155%):    0.052602 | Pressure (   99%):    0.052602 | Friction (    0%):    0.000000 | Momentum (    0%):    0.000000
Total CFx   (   18%):   -0.011841 | Pressure (  100%):   -0.011841 | Friction (    0%):    0.000000 | Momentum (    0%):    0.000000
Total CFy   (  102%):    0.004673 | Pressure (   99%):    0.004673 | Friction (    0%):    0.000000 | Momentum (    0%):    0.000000
Total CFz   (   20%):    0.018213 | Pressure (   99%):    0.018213 | Friction (    0%):    0.000000 | Momentum (    0%):    0.000000

Surface name: Wing1_Seg3_mirrored

Total CL    (   19%):    0.017273 | Pressure (   99%):    0.017273 | Friction (    0%):    0.000000 | Momentum (    0%):    0.000000
Total CD    (   19%):   -0.012103 | Pressure (  100%):   -0.012103 | Friction (    0%):    0.000000 | Momentum (    0%):    0.000000
Total CSF   ( -106%):   -0.004820 | Pressure (  100%):   -0.004820 | Friction (    0%):    0.000000 | Momentum (    0%):    0.000000
Total CL/CD (  101%):   -1.427194 | Pressure (  100%):   -1.427194 | Friction (    0%):    0.000000 | Momentum (    0%):    0.000000
Total CMx   (14576%):   -0.044897 | Pressure (  100%):   -0.044897 | Friction (    0%):    0.000000 | Momentum (    0%):    0.000000
Total CMy   (   21%):   -0.070607 | Pressure (  100%):   -0.070607 | Friction (    0%):    0.000000 | Momentum (    0%):    0.000000
Total CMz   ( -159%):   -0.053888 | Pressure (  100%):   -0.053888 | Friction (    0%):    0.000000 | Momentum (    0%):    0.000000
Total CFx   (   19%):   -0.012103 | Pressure (  100%):   -0.012103 | Friction (    0%):    0.000000 | Momentum (    0%):    0.000000
Total CFy   ( -106%):   -0.004820 | Pressure (  100%):   -0.004820 | Friction (    0%):    0.000000 | Momentum (    0%):    0.000000
Total CFz   (   19%):    0.017273 | Pressure (   99%):    0.017273 | Friction (    0%):    0.000000 | Momentum (    0%):    0.000000

Surface name: Wing2H_Seg1

Total CL    (  -10%):   -0.009295 | Pressure (  100%):   -0.009295 | Friction (    0%):    0.000000 | Momentum (    0%):    0.000000
Total CD    (    6%):   -0.003929 | Pressure (  100%):   -0.003929 | Friction (    0%):    0.000000 | Momentum (    0%):    0.000000
Total CSF   (   72%):    0.003314 | Pressure (   99%):    0.003314 | Friction (    0%):    0.000000 | Momentum (    0%):    0.000000
Total CL/CD ( -168%):    2.366054 | Pressure (  100%):    2.366054 | Friction (    0%):    0.000000 | Momentum (    0%):    0.000000
Total CMx   ( 2484%):   -0.007653 | Pressure (  100%):   -0.007653 | Friction (    0%):    0.000000 | Momentum (    0%):    0.000000
Total CMy   (  -23%):    0.074174 | Pressure (   99%):    0.074174 | Friction (    0%):    0.000000 | Momentum (    0%):    0.000000
Total CMz   (   89%):    0.030238 | Pressure (   99%):    0.030238 | Friction (    0%):    0.000000 | Momentum (    0%):    0.000000
Total CFx   (    6%):   -0.003929 | Pressure (  100%):   -0.003929 | Friction (    0%):    0.000000 | Momentum (    0%):    0.000000
Total CFy   (   72%):    0.003314 | Pressure (   99%):    0.003314 | Friction (    0%):    0.000000 | Momentum (    0%):    0.000000
Total CFz   (  -10%):   -0.009295 | Pressure (  100%):   -0.009295 | Friction (    0%):    0.000000 | Momentum (    0%):    0.000000

Surface name: Wing2H_Seg1_mirrored

Total CL    (  -11%):   -0.010524 | Pressure (  100%):   -0.010524 | Friction (    0%):    0.000000 | Momentum (    0%):    0.000000
Total CD    (    6%):   -0.003827 | Pressure (  100%):   -0.003827 | Friction (    0%):    0.000000 | Momentum (    0%):    0.000000
Total CSF   (  -73%):   -0.003323 | Pressure (  100%):   -0.003323 | Friction (    0%):    0.000000 | Momentum (    0%):    0.000000
Total CL/CD ( -195%):    2.749725 | Pressure (  100%):    2.749725 | Friction (    0%):    0.000000 | Momentum (    0%):    0.000000
Total CMx   (-2813%):    0.008665 | Pressure (   99%):    0.008665 | Friction (    0%):    0.000000 | Momentum (    0%):    0.000000
Total CMy   (  -26%):    0.084506 | Pressure (   99%):    0.084506 | Friction (    0%):    0.000000 | Momentum (    0%):    0.000000
Total CMz   (  -89%):   -0.030206 | Pressure (  100%):   -0.030206 | Friction (    0%):    0.000000 | Momentum (    0%):    0.000000
Total CFx   (    6%):   -0.003827 | Pressure (  100%):   -0.003827 | Friction (    0%):    0.000000 | Momentum (    0%):    0.000000
Total CFy   (  -73%):   -0.003323 | Pressure (  100%):   -0.003323 | Friction (    0%):    0.000000 | Momentum (    0%):    0.000000
Total CFz   (  -11%):   -0.010524 | Pressure (  100%):   -0.010524 | Friction (    0%):    0.000000 | Momentum (    0%):    0.000000

Surface name: Wing3V_Seg1

Total CL    (    3%):    0.003010 | Pressure (   99%):    0.003010 | Friction (    0%):    0.000000 | Momentum (    0%):    0.000000
Total CD    (    5%):   -0.003390 | Pressure (  100%):   -0.003390 | Friction (    0%):    0.000000 | Momentum (    0%):    0.000000
Total CSF   ( -430%):   -0.019564 | Pressure (  100%):   -0.019564 | Friction (    0%):    0.000000 | Momentum (    0%):    0.000000
Total CL/CD (   63%):   -0.888041 | Pressure (  100%):   -0.888041 | Friction (    0%):    0.000000 | Momentum (    0%):    0.000000
Total CMx   (-6297%):    0.019395 | Pressure (   99%):    0.019395 | Friction (    0%):    0.000000 | Momentum (    0%):    0.000000
Total CMy   (    8%):   -0.027419 | Pressure (  100%):   -0.027419 | Friction (    0%):    0.000000 | Momentum (    0%):    0.000000
Total CMz   ( -452%):   -0.153016 | Pressure (  100%):   -0.153016 | Friction (    0%):    0.000000 | Momentum (    0%):    0.000000
Total CFx   (    5%):   -0.003390 | Pressure (  100%):   -0.003390 | Friction (    0%):    0.000000 | Momentum (    0%):    0.000000
Total CFy   ( -430%):   -0.019564 | Pressure (  100%):   -0.019564 | Friction (    0%):    0.000000 | Momentum (    0%):    0.000000
Total CFz   (    3%):    0.003010 | Pressure (   99%):    0.003010 | Friction (    0%):    0.000000 | Momentum (    0%):    0.000000

Surface name: Wing3V_Seg1_mirrored

Total CL    (    4%):    0.003754 | Pressure (   99%):    0.003754 | Friction (    0%):    0.000000 | Momentum (    0%):    0.000000
Total CD    (    6%):   -0.004390 | Pressure (  100%):   -0.004390 | Friction (    0%):    0.000000 | Momentum (    0%):    0.000000
Total CSF   (  440%):    0.020009 | Pressure (   99%):    0.020009 | Friction (    0%):    0.000000 | Momentum (    0%):    0.000000
Total CL/CD (   60%):   -0.855170 | Pressure (  100%):   -0.855170 | Friction (    0%):    0.000000 | Momentum (    0%):    0.000000
Total CMx   ( 6356%):   -0.019579 | Pressure (  100%):   -0.019579 | Friction (    0%):    0.000000 | Momentum (    0%):    0.000000
Total CMy   (   10%):   -0.034681 | Pressure (  100%):   -0.034681 | Friction (    0%):    0.000000 | Momentum (    0%):    0.000000
Total CMz   (  460%):    0.155748 | Pressure (   99%):    0.155748 | Friction (    0%):    0.000000 | Momentum (    0%):    0.000000
Total CFx   (    6%):   -0.004390 | Pressure (  100%):   -0.004390 | Friction (    0%):    0.000000 | Momentum (    0%):    0.000000
Total CFy   (  440%):    0.020009 | Pressure (   99%):    0.020009 | Friction (    0%):    0.000000 | Momentum (    0%):    0.000000
Total CFz   (    4%):    0.003754 | Pressure (   99%):    0.003754 | Friction (    0%):    0.000000 | Momentum (    0%):    0.000000

Surface name: left_plain_aileron_Wing1_Seg3

Total CL    (    4%):    0.003809 | Pressure (   99%):    0.003809 | Friction (    0%):    0.000000 | Momentum (    0%):    0.000000
Total CD    (   -5%):    0.003654 | Pressure (   99%):    0.003654 | Friction (    0%):    0.000000 | Momentum (    0%):    0.000000
Total CSF   (   36%):    0.001658 | Pressure (   99%):    0.001658 | Friction (    0%):    0.000000 | Momentum (    0%):    0.000000
Total CL/CD (  -74%):    1.042431 | Pressure (  100%):    1.042431 | Friction (    0%):    0.000000 | Momentum (    0%):    0.000000
Total CMx   ( 2693%):   -0.008297 | Pressure (  100%):   -0.008297 | Friction (    0%):    0.000000 | Momentum (    0%):    0.000000
Total CMy   (    5%):   -0.018077 | Pressure (  100%):   -0.018077 | Friction (    0%):    0.000000 | Momentum (    0%):    0.000000
Total CMz   (   47%):    0.016100 | Pressure (   99%):    0.016100 | Friction (    0%):    0.000000 | Momentum (    0%):    0.000000
Total CFx   (   -5%):    0.003654 | Pressure (   99%):    0.003654 | Friction (    0%):    0.000000 | Momentum (    0%):    0.000000
Total CFy   (   36%):    0.001658 | Pressure (   99%):    0.001658 | Friction (    0%):    0.000000 | Momentum (    0%):    0.000000
Total CFz   (    4%):    0.003809 | Pressure (   99%):    0.003809 | Friction (    0%):    0.000000 | Momentum (    0%):    0.000000

Surface name: plain_flap_Wing1_Seg2

Total CL    (   10%):    0.009002 | Pressure (   99%):    0.009002 | Friction (    0%):    0.000000 | Momentum (    0%):    0.000000
Total CD    (    0%):    0.000468 | Pressure (   99%):    0.000468 | Friction (    0%):    0.000000 | Momentum (    0%):    0.000000
Total CSF   (  -16%):   -0.000735 | Pressure (  100%):   -0.000735 | Friction (    0%):    0.000000 | Momentum (    0%):    0.000000
Total CL/CD (-1366%):   19.230383 | Pressure (  100%):   19.230383 | Friction (    0%):    0.000000 | Momentum (    0%):    0.000000
Total CMx   (-2690%):    0.008287 | Pressure (   99%):    0.008287 | Friction (    0%):    0.000000 | Momentum (    0%):    0.000000
Total CMy   (   12%):   -0.038943 | Pressure (  100%):   -0.038943 | Friction (    0%):    0.000000 | Momentum (    0%):    0.000000
Total CMz   (  -10%):   -0.003510 | Pressure (  100%):   -0.003510 | Friction (    0%):    0.000000 | Momentum (    0%):    0.000000
Total CFx   (    0%):    0.000468 | Pressure (   99%):    0.000468 | Friction (    0%):    0.000000 | Momentum (    0%):    0.000000
Total CFy   (  -16%):   -0.000735 | Pressure (  100%):   -0.000735 | Friction (    0%):    0.000000 | Momentum (    0%):    0.000000
Total CFz   (   10%):    0.009002 | Pressure (   99%):    0.009002 | Friction (    0%):    0.000000 | Momentum (    0%):    0.000000

Surface name: plain_flap_Wing1_Seg2_mirrored

Total CL    (    8%):    0.007444 | Pressure (   99%):    0.007444 | Friction (    0%):    0.000000 | Momentum (    0%):    0.000000
Total CD    (   -1%):    0.000922 | Pressure (   99%):    0.000922 | Friction (    0%):    0.000000 | Momentum (    0%):    0.000000
Total CSF   (   14%):    0.000641 | Pressure (   99%):    0.000641 | Friction (    0%):    0.000000 | Momentum (    0%):    0.000000
Total CL/CD ( -573%):    8.069566 | Pressure (  100%):    8.069566 | Friction (    0%):    0.000000 | Momentum (    0%):    0.000000
Total CMx   ( 2328%):   -0.007172 | Pressure (  100%):   -0.007172 | Friction (    0%):    0.000000 | Momentum (    0%):    0.000000
Total CMy   (   10%):   -0.032359 | Pressure (  100%):   -0.032359 | Friction (    0%):    0.000000 | Momentum (    0%):    0.000000
Total CMz   (   10%):    0.003588 | Pressure (   99%):    0.003588 | Friction (    0%):    0.000000 | Momentum (    0%):    0.000000
Total CFx   (   -1%):    0.000922 | Pressure (   99%):    0.000922 | Friction (    0%):    0.000000 | Momentum (    0%):    0.000000
Total CFy   (   14%):    0.000641 | Pressure (   99%):    0.000641 | Friction (    0%):    0.000000 | Momentum (    0%):    0.000000
Total CFz   (    8%):    0.007444 | Pressure (   99%):    0.007444 | Friction (    0%):    0.000000 | Momentum (    0%):    0.000000

Surface name: plain_rudder_Wing3V_Seg1

Total CL    (   -1%):   -0.001222 | Pressure (  100%):   -0.001222 | Friction (    0%):    0.000000 | Momentum (    0%):    0.000000
Total CD    (   -3%):    0.002343 | Pressure (   99%):    0.002343 | Friction (    0%):    0.000000 | Momentum (    0%):    0.000000
Total CSF   (   51%):    0.002325 | Pressure (   99%):    0.002325 | Friction (    0%):    0.000000 | Momentum (    0%):    0.000000
Total CL/CD (   37%):   -0.521637 | Pressure (  100%):   -0.521637 | Friction (    0%):    0.000000 | Momentum (    0%):    0.000000
Total CMx   (  768%):   -0.002367 | Pressure (  100%):   -0.002367 | Friction (    0%):    0.000000 | Momentum (    0%):    0.000000
Total CMy   (   -3%):    0.012098 | Pressure (   99%):    0.012098 | Friction (    0%):    0.000000 | Momentum (    0%):    0.000000
Total CMz   (   58%):    0.019830 | Pressure (   99%):    0.019830 | Friction (    0%):    0.000000 | Momentum (    0%):    0.000000
Total CFx   (   -3%):    0.002343 | Pressure (   99%):    0.002343 | Friction (    0%):    0.000000 | Momentum (    0%):    0.000000
Total CFy   (   51%):    0.002325 | Pressure (   99%):    0.002325 | Friction (    0%):    0.000000 | Momentum (    0%):    0.000000
Total CFz   (   -1%):   -0.001222 | Pressure (  100%):   -0.001222 | Friction (    0%):    0.000000 | Momentum (    0%):    0.000000

Surface name: right_plain_aileron_Wing1_Seg3

Total CL    (    3%):    0.003022 | Pressure (   99%):    0.003022 | Friction (    0%):    0.000000 | Momentum (    0%):    0.000000
Total CD    (   -6%):    0.003788 | Pressure (   99%):    0.003788 | Friction (    0%):    0.000000 | Momentum (    0%):    0.000000
Total CSF   (  -34%):   -0.001582 | Pressure (  100%):   -0.001582 | Friction (    0%):    0.000000 | Momentum (    0%):    0.000000
Total CL/CD (  -56%):    0.797767 | Pressure (   99%):    0.797767 | Friction (    0%):    0.000000 | Momentum (    0%):    0.000000
Total CMx   (-2170%):    0.006685 | Pressure (   99%):    0.006685 | Friction (    0%):    0.000000 | Momentum (    0%):    0.000000
Total CMy   (    4%):   -0.014552 | Pressure (  100%):   -0.014552 | Friction (    0%):    0.000000 | Momentum (    0%):    0.000000
Total CMz   (  -47%):   -0.016013 | Pressure (  100%):   -0.016013 | Friction (    0%):    0.000000 | Momentum (    0%):    0.000000
Total CFx   (   -6%):    0.003788 | Pressure (   99%):    0.003788 | Friction (    0%):    0.000000 | Momentum (    0%):    0.000000
Total CFy   (  -34%):   -0.001582 | Pressure (  100%):   -0.001582 | Friction (    0%):    0.000000 | Momentum (    0%):    0.000000
Total CFz   (    3%):    0.003022 | Pressure (   99%):    0.003022 | Friction (    0%):    0.000000 | Momentum (    0%):    0.000000

