
-------------------------------------------------------------------------
|    ___ _   _ ___                                                      |
|   / __| | | |_  )   Release 8.1.0 "Harrier"                           |
|   \__ \ |_| |/ /                                                      |
|   |___/\___//___|   Suite (Computational Fluid Dynamics Code)         |
|                                                                       |
-------------------------------------------------------------------------
| SU2 Project Website: https://su2code.github.io                        |
|                                                                       |
| The SU2 Project is maintained by the SU2 Foundation                   |
| (http://su2foundation.org)                                            |
-------------------------------------------------------------------------
| Copyright 2012-2024, SU2 Contributors                                 |
|                                                                       |
| SU2 is free software; you can redistribute it and/or                  |
| modify it under the terms of the GNU Lesser General Public            |
| License as published by the Free Software Foundation; either          |
| version 2.1 of the License, or (at your option) any later version.    |
|                                                                       |
| SU2 is distributed in the hope that it will be useful,                |
| but WITHOUT ANY WARRANTY; without even the implied warranty of        |
| MERCHANTABILITY or FITNESS FOR A PARTICULAR PURPOSE. See the GNU      |
| Lesser General Public License for more details.                       |
|                                                                       |
| You should have received a copy of the GNU Lesser General Public      |
| License along with SU2. If not, see <http://www.gnu.org/licenses/>.   |
-------------------------------------------------------------------------


Problem definition:

Compressible Euler equations.
Mach number: 0.3.
Angle of attack (AoA): 0 deg, and angle of sideslip (AoS): 0 deg.
Non-Dimensional simulation (V=1.0, Rho=1.0, T=1.0 at the farfield).
The reference area is 122.4 m^2.
The reference length is 4.193 m.


Problem definition:

Inviscid flow: Computing density based on free-stream
temperature and pressure using the ideal gas law.
Force coefficients computed using MACH_MOTION.
-- Input conditions:
Fluid Model: STANDARD_AIR 
Specific gas constant: 287.058 N.m/kg.K.
Specific gas constant (non-dim): 7.93651
Specific Heat Ratio: 1.4000 
Free-stream static pressure: 101325 Pa.
Free-stream total pressure: 107853 Pa.
Free-stream temperature: 288.15 K.
Free-stream total temperature: 293.337 K.
Free-stream density: 1.22498 kg/m^3.
Free-stream velocity: (102.089, 0, 0) m/s. Magnitude: 102.089 m/s.
Free-stream total energy per unit mass: 212000 m^2/s^2.
Total time: 0 s. Time step: 3.61103 s.
-- Reference values:
Reference specific gas constant: 36.1693 N.m/kg.K.
Reference pressure: 12767 Pa.
Reference temperature: 288.15 K.
Reference density: 1.22498 kg/m^3.
Reference velocity: 102.089 m/s.
Reference energy per unit mass: 10422.2 m^2/s^2.
Reference time: 0.00979536 s.
-- Resulting non-dimensional state:
Mach number (non-dim): 0.3
Specific gas constant (non-dim): 7.93651
Free-stream temperature (non-dim): 1
Free-stream pressure (non-dim): 7.93651
Free-stream density (non-dim): 1
Free-stream velocity (non-dim): (1, 0, 0). Magnitude: 1
Free-stream total energy per unit mass (non-dim): 20.3413
Total time (non-dim): 0
Time step (non-dim): 368.646


Forces breakdown:

Center of Pressure: X=-2.376287Z+8.067534 m.

NOTE: Multiply forces by the non-dimensional factor: 61.200000, and the reference factor: 12766.950000
to obtain the dimensional force.

Total CL:       0.026659 | Pressure (   99%):    0.026659 | Friction (    0%):    0.000000 | Momentum (    0%):    0.000000
Total CD:      -0.063349 | Pressure (  100%):   -0.063349 | Friction (    0%):    0.000000 | Momentum (    0%):    0.000000
Total CSF:      0.003996 | Pressure (   99%):    0.003996 | Friction (    0%):    0.000000 | Momentum (    0%):    0.000000
Total CL/CD:   -0.420825 | Pressure (  100%):   -0.420825 | Friction (    0%):    0.000000 | Momentum (    0%):    0.000000
Total CMx:      0.000023 | Pressure (   99%):    0.000023 | Friction (    0%):    0.000000 | Momentum (    0%):    0.000000
Total CMy:     -0.051293 | Pressure (  100%):   -0.051293 | Friction (    0%):    0.000000 | Momentum (    0%):    0.000000
Total CMz:      0.029485 | Pressure (   99%):    0.029485 | Friction (    0%):    0.000000 | Momentum (    0%):    0.000000
Total CFx:     -0.063349 | Pressure (  100%):   -0.063349 | Friction (    0%):    0.000000 | Momentum (    0%):    0.000000
Total CFy:      0.003996 | Pressure (   99%):    0.003996 | Friction (    0%):    0.000000 | Momentum (    0%):    0.000000
Total CFz:      0.026659 | Pressure (   99%):    0.026659 | Friction (    0%):    0.000000 | Momentum (    0%):    0.000000


Surface name: Fuselage1

Total CL    (   59%):    0.015816 | Pressure (   99%):    0.015816 | Friction (    0%):    0.000000 | Momentum (    0%):    0.000000
Total CD    (   21%):   -0.013811 | Pressure (  100%):   -0.013811 | Friction (    0%):    0.000000 | Momentum (    0%):    0.000000
Total CSF   (   45%):    0.001804 | Pressure (   99%):    0.001804 | Friction (    0%):    0.000000 | Momentum (    0%):    0.000000
Total CL/CD (  272%):   -1.145171 | Pressure (  100%):   -1.145171 | Friction (    0%):    0.000000 | Momentum (    0%):    0.000000
Total CMx   ( -975%):   -0.000225 | Pressure (  100%):   -0.000225 | Friction (    0%):    0.000000 | Momentum (    0%):    0.000000
Total CMy   (  180%):   -0.092486 | Pressure (  100%):   -0.092486 | Friction (    0%):    0.000000 | Momentum (    0%):    0.000000
Total CMz   (   39%):    0.011639 | Pressure (   99%):    0.011639 | Friction (    0%):    0.000000 | Momentum (    0%):    0.000000
Total CFx   (   21%):   -0.013811 | Pressure (  100%):   -0.013811 | Friction (    0%):    0.000000 | Momentum (    0%):    0.000000
Total CFy   (   45%):    0.001804 | Pressure (   99%):    0.001804 | Friction (    0%):    0.000000 | Momentum (    0%):    0.000000
Total CFz   (   59%):    0.015816 | Pressure (   99%):    0.015816 | Friction (    0%):    0.000000 | Momentum (    0%):    0.000000

Surface name: Wing1_Seg1

Total CL    (  -12%):   -0.003253 | Pressure (  100%):   -0.003253 | Friction (    0%):    0.000000 | Momentum (    0%):    0.000000
Total CD    (    0%):   -0.000011 | Pressure (  100%):   -0.000011 | Friction (    0%):    0.000000 | Momentum (    0%):    0.000000
Total CSF   (   -4%):   -0.000199 | Pressure (  100%):   -0.000199 | Friction (    0%):    0.000000 | Momentum (    0%):    0.000000
Total CL/CD (-70479%):  296.593373 | Pressure (  100%):  296.593373 | Friction (    0%):    0.000000 | Momentum (    0%):    0.000000
Total CMx   (-5428%):   -0.001252 | Pressure (  100%):   -0.001252 | Friction (    0%):    0.000000 | Momentum (    0%):    0.000000
Total CMy   (  -21%):    0.010794 | Pressure (   99%):    0.010794 | Friction (    0%):    0.000000 | Momentum (    0%):    0.000000
Total CMz   (   -2%):   -0.000862 | Pressure (  100%):   -0.000862 | Friction (    0%):    0.000000 | Momentum (    0%):    0.000000
Total CFx   (    0%):   -0.000011 | Pressure (  100%):   -0.000011 | Friction (    0%):    0.000000 | Momentum (    0%):    0.000000
Total CFy   (   -4%):   -0.000199 | Pressure (  100%):   -0.000199 | Friction (    0%):    0.000000 | Momentum (    0%):    0.000000
Total CFz   (  -12%):   -0.003253 | Pressure (  100%):   -0.003253 | Friction (    0%):    0.000000 | Momentum (    0%):    0.000000

Surface name: Wing1_Seg1_mirrored

Total CL    (  -11%):   -0.003175 | Pressure (  100%):   -0.003175 | Friction (    0%):    0.000000 | Momentum (    0%):    0.000000
Total CD    (    0%):   -0.000020 | Pressure (  100%):   -0.000020 | Friction (    0%):    0.000000 | Momentum (    0%):    0.000000
Total CSF   (    5%):    0.000202 | Pressure (   99%):    0.000202 | Friction (    0%):    0.000000 | Momentum (    0%):    0.000000
Total CL/CD (-36910%):  155.326680 | Pressure (  100%):  155.326680 | Friction (    0%):    0.000000 | Momentum (    0%):    0.000000
Total CMx   ( 5309%):    0.001225 | Pressure (   99%):    0.001225 | Friction (    0%):    0.000000 | Momentum (    0%):    0.000000
Total CMy   (  -20%):    0.010501 | Pressure (   99%):    0.010501 | Friction (    0%):    0.000000 | Momentum (    0%):    0.000000
Total CMz   (    2%):    0.000876 | Pressure (   99%):    0.000876 | Friction (    0%):    0.000000 | Momentum (    0%):    0.000000
Total CFx   (    0%):   -0.000020 | Pressure (  100%):   -0.000020 | Friction (    0%):    0.000000 | Momentum (    0%):    0.000000
Total CFy   (    5%):    0.000202 | Pressure (   99%):    0.000202 | Friction (    0%):    0.000000 | Momentum (    0%):    0.000000
Total CFz   (  -11%):   -0.003175 | Pressure (  100%):   -0.003175 | Friction (    0%):    0.000000 | Momentum (    0%):    0.000000

Surface name: Wing1_Seg2

Total CL    (   14%):    0.003858 | Pressure (   99%):    0.003858 | Friction (    0%):    0.000000 | Momentum (    0%):    0.000000
Total CD    (   16%):   -0.010651 | Pressure (  100%):   -0.010651 | Friction (    0%):    0.000000 | Momentum (    0%):    0.000000
Total CSF   (  132%):    0.005288 | Pressure (   99%):    0.005288 | Friction (    0%):    0.000000 | Momentum (    0%):    0.000000
Total CL/CD (   86%):   -0.362199 | Pressure (  100%):   -0.362199 | Friction (    0%):    0.000000 | Momentum (    0%):    0.000000
Total CMx   (19989%):    0.004610 | Pressure (   99%):    0.004610 | Friction (    0%):    0.000000 | Momentum (    0%):    0.000000
Total CMy   (   15%):   -0.007717 | Pressure (  100%):   -0.007717 | Friction (    0%):    0.000000 | Momentum (    0%):    0.000000
Total CMz   (  102%):    0.030263 | Pressure (   99%):    0.030263 | Friction (    0%):    0.000000 | Momentum (    0%):    0.000000
Total CFx   (   16%):   -0.010651 | Pressure (  100%):   -0.010651 | Friction (    0%):    0.000000 | Momentum (    0%):    0.000000
Total CFy   (  132%):    0.005288 | Pressure (   99%):    0.005288 | Friction (    0%):    0.000000 | Momentum (    0%):    0.000000
Total CFz   (   14%):    0.003858 | Pressure (   99%):    0.003858 | Friction (    0%):    0.000000 | Momentum (    0%):    0.000000

Surface name: Wing1_Seg2_mirrored

Total CL    (   16%):    0.004301 | Pressure (   99%):    0.004301 | Friction (    0%):    0.000000 | Momentum (    0%):    0.000000
Total CD    (   16%):   -0.010593 | Pressure (  100%):   -0.010593 | Friction (    0%):    0.000000 | Momentum (    0%):    0.000000
Total CSF   ( -129%):   -0.005178 | Pressure (  100%):   -0.005178 | Friction (    0%):    0.000000 | Momentum (    0%):    0.000000
Total CL/CD (   96%):   -0.406048 | Pressure (  100%):   -0.406048 | Friction (    0%):    0.000000 | Momentum (    0%):    0.000000
Total CMx   (-22455%):   -0.005179 | Pressure (  100%):   -0.005179 | Friction (    0%):    0.000000 | Momentum (    0%):    0.000000
Total CMy   (   18%):   -0.009630 | Pressure (  100%):   -0.009630 | Friction (    0%):    0.000000 | Momentum (    0%):    0.000000
Total CMz   ( -101%):   -0.029792 | Pressure (  100%):   -0.029792 | Friction (    0%):    0.000000 | Momentum (    0%):    0.000000
Total CFx   (   16%):   -0.010593 | Pressure (  100%):   -0.010593 | Friction (    0%):    0.000000 | Momentum (    0%):    0.000000
Total CFy   ( -129%):   -0.005178 | Pressure (  100%):   -0.005178 | Friction (    0%):    0.000000 | Momentum (    0%):    0.000000
Total CFz   (   16%):    0.004301 | Pressure (   99%):    0.004301 | Friction (    0%):    0.000000 | Momentum (    0%):    0.000000

Surface name: Wing1_Seg3

Total CL    (   21%):    0.005663 | Pressure (   99%):    0.005663 | Friction (    0%):    0.000000 | Momentum (    0%):    0.000000
Total CD    (   19%):   -0.012101 | Pressure (  100%):   -0.012101 | Friction (    0%):    0.000000 | Momentum (    0%):    0.000000
Total CSF   (  142%):    0.005688 | Pressure (   99%):    0.005688 | Friction (    0%):    0.000000 | Momentum (    0%):    0.000000
Total CL/CD (  111%):   -0.467962 | Pressure (  100%):   -0.467962 | Friction (    0%):    0.000000 | Momentum (    0%):    0.000000
Total CMx   (68614%):    0.015825 | Pressure (   99%):    0.015825 | Friction (    0%):    0.000000 | Momentum (    0%):    0.000000
Total CMy   (   41%):   -0.021493 | Pressure (  100%):   -0.021493 | Friction (    0%):    0.000000 | Momentum (    0%):    0.000000
Total CMz   (  195%):    0.057652 | Pressure (   99%):    0.057652 | Friction (    0%):    0.000000 | Momentum (    0%):    0.000000
Total CFx   (   19%):   -0.012101 | Pressure (  100%):   -0.012101 | Friction (    0%):    0.000000 | Momentum (    0%):    0.000000
Total CFy   (  142%):    0.005688 | Pressure (   99%):    0.005688 | Friction (    0%):    0.000000 | Momentum (    0%):    0.000000
Total CFz   (   21%):    0.005663 | Pressure (   99%):    0.005663 | Friction (    0%):    0.000000 | Momentum (    0%):    0.000000

Surface name: Wing1_Seg3_mirrored

Total CL    (   17%):    0.004649 | Pressure (   99%):    0.004649 | Friction (    0%):    0.000000 | Momentum (    0%):    0.000000
Total CD    (   19%):   -0.012347 | Pressure (  100%):   -0.012347 | Friction (    0%):    0.000000 | Momentum (    0%):    0.000000
Total CSF   ( -146%):   -0.005842 | Pressure (  100%):   -0.005842 | Friction (    0%):    0.000000 | Momentum (    0%):    0.000000
Total CL/CD (   89%):   -0.376542 | Pressure (  100%):   -0.376542 | Friction (    0%):    0.000000 | Momentum (    0%):    0.000000
Total CMx   (-56830%):   -0.013107 | Pressure (  100%):   -0.013107 | Friction (    0%):    0.000000 | Momentum (    0%):    0.000000
Total CMy   (   32%):   -0.016824 | Pressure (  100%):   -0.016824 | Friction (    0%):    0.000000 | Momentum (    0%):    0.000000
Total CMz   ( -199%):   -0.058931 | Pressure (  100%):   -0.058931 | Friction (    0%):    0.000000 | Momentum (    0%):    0.000000
Total CFx   (   19%):   -0.012347 | Pressure (  100%):   -0.012347 | Friction (    0%):    0.000000 | Momentum (    0%):    0.000000
Total CFy   ( -146%):   -0.005842 | Pressure (  100%):   -0.005842 | Friction (    0%):    0.000000 | Momentum (    0%):    0.000000
Total CFz   (   17%):    0.004649 | Pressure (   99%):    0.004649 | Friction (    0%):    0.000000 | Momentum (    0%):    0.000000

Surface name: Wing2H_Seg1

Total CL    (  -47%):   -0.012652 | Pressure (  100%):   -0.012652 | Friction (    0%):    0.000000 | Momentum (    0%):    0.000000
Total CD    (    6%):   -0.003838 | Pressure (  100%):   -0.003838 | Friction (    0%):    0.000000 | Momentum (    0%):    0.000000
Total CSF   (   91%):    0.003661 | Pressure (   99%):    0.003661 | Friction (    0%):    0.000000 | Momentum (    0%):    0.000000
Total CL/CD ( -783%):    3.296611 | Pressure (  100%):    3.296611 | Friction (    0%):    0.000000 | Momentum (    0%):    0.000000
Total CMx   (-45924%):   -0.010592 | Pressure (  100%):   -0.010592 | Friction (    0%):    0.000000 | Momentum (    0%):    0.000000
Total CMy   ( -197%):    0.101331 | Pressure (   99%):    0.101331 | Friction (    0%):    0.000000 | Momentum (    0%):    0.000000
Total CMz   (  111%):    0.032973 | Pressure (   99%):    0.032973 | Friction (    0%):    0.000000 | Momentum (    0%):    0.000000
Total CFx   (    6%):   -0.003838 | Pressure (  100%):   -0.003838 | Friction (    0%):    0.000000 | Momentum (    0%):    0.000000
Total CFy   (   91%):    0.003661 | Pressure (   99%):    0.003661 | Friction (    0%):    0.000000 | Momentum (    0%):    0.000000
Total CFz   (  -47%):   -0.012652 | Pressure (  100%):   -0.012652 | Friction (    0%):    0.000000 | Momentum (    0%):    0.000000

Surface name: Wing2H_Seg1_mirrored

Total CL    (  -51%):   -0.013666 | Pressure (  100%):   -0.013666 | Friction (    0%):    0.000000 | Momentum (    0%):    0.000000
Total CD    (    5%):   -0.003715 | Pressure (  100%):   -0.003715 | Friction (    0%):    0.000000 | Momentum (    0%):    0.000000
Total CSF   (  -91%):   -0.003646 | Pressure (  100%):   -0.003646 | Friction (    0%):    0.000000 | Momentum (    0%):    0.000000
Total CL/CD ( -874%):    3.678617 | Pressure (  100%):    3.678617 | Friction (    0%):    0.000000 | Momentum (    0%):    0.000000
Total CMx   (49565%):    0.011432 | Pressure (   99%):    0.011432 | Friction (    0%):    0.000000 | Momentum (    0%):    0.000000
Total CMy   ( -214%):    0.109921 | Pressure (   99%):    0.109921 | Friction (    0%):    0.000000 | Momentum (    0%):    0.000000
Total CMz   ( -110%):   -0.032722 | Pressure (  100%):   -0.032722 | Friction (    0%):    0.000000 | Momentum (    0%):    0.000000
Total CFx   (    5%):   -0.003715 | Pressure (  100%):   -0.003715 | Friction (    0%):    0.000000 | Momentum (    0%):    0.000000
Total CFy   (  -91%):   -0.003646 | Pressure (  100%):   -0.003646 | Friction (    0%):    0.000000 | Momentum (    0%):    0.000000
Total CFz   (  -51%):   -0.013666 | Pressure (  100%):   -0.013666 | Friction (    0%):    0.000000 | Momentum (    0%):    0.000000

Surface name: Wing3V_Seg1

Total CL    (   11%):    0.002953 | Pressure (   99%):    0.002953 | Friction (    0%):    0.000000 | Momentum (    0%):    0.000000
Total CD    (    5%):   -0.003235 | Pressure (  100%):   -0.003235 | Friction (    0%):    0.000000 | Momentum (    0%):    0.000000
Total CSF   ( -472%):   -0.018865 | Pressure (  100%):   -0.018865 | Friction (    0%):    0.000000 | Momentum (    0%):    0.000000
Total CL/CD (  216%):   -0.912840 | Pressure (  100%):   -0.912840 | Friction (    0%):    0.000000 | Momentum (    0%):    0.000000
Total CMx   (84064%):    0.019389 | Pressure (   99%):    0.019389 | Friction (    0%):    0.000000 | Momentum (    0%):    0.000000
Total CMy   (   52%):   -0.026805 | Pressure (  100%):   -0.026805 | Friction (    0%):    0.000000 | Momentum (    0%):    0.000000
Total CMz   ( -498%):   -0.147050 | Pressure (  100%):   -0.147050 | Friction (    0%):    0.000000 | Momentum (    0%):    0.000000
Total CFx   (    5%):   -0.003235 | Pressure (  100%):   -0.003235 | Friction (    0%):    0.000000 | Momentum (    0%):    0.000000
Total CFy   ( -472%):   -0.018865 | Pressure (  100%):   -0.018865 | Friction (    0%):    0.000000 | Momentum (    0%):    0.000000
Total CFz   (   11%):    0.002953 | Pressure (   99%):    0.002953 | Friction (    0%):    0.000000 | Momentum (    0%):    0.000000

Surface name: Wing3V_Seg1_mirrored

Total CL    (   13%):    0.003674 | Pressure (   99%):    0.003674 | Friction (    0%):    0.000000 | Momentum (    0%):    0.000000
Total CD    (    6%):   -0.004171 | Pressure (  100%):   -0.004171 | Friction (    0%):    0.000000 | Momentum (    0%):    0.000000
Total CSF   (  472%):    0.018877 | Pressure (   99%):    0.018877 | Friction (    0%):    0.000000 | Momentum (    0%):    0.000000
Total CL/CD (  209%):   -0.880745 | Pressure (  100%):   -0.880745 | Friction (    0%):    0.000000 | Momentum (    0%):    0.000000
Total CMx   (-83081%):   -0.019162 | Pressure (  100%):   -0.019162 | Friction (    0%):    0.000000 | Momentum (    0%):    0.000000
Total CMy   (   65%):   -0.033811 | Pressure (  100%):   -0.033811 | Friction (    0%):    0.000000 | Momentum (    0%):    0.000000
Total CMz   (  496%):    0.146353 | Pressure (   99%):    0.146353 | Friction (    0%):    0.000000 | Momentum (    0%):    0.000000
Total CFx   (    6%):   -0.004171 | Pressure (  100%):   -0.004171 | Friction (    0%):    0.000000 | Momentum (    0%):    0.000000
Total CFy   (  472%):    0.018877 | Pressure (   99%):    0.018877 | Friction (    0%):    0.000000 | Momentum (    0%):    0.000000
Total CFz   (   13%):    0.003674 | Pressure (   99%):    0.003674 | Friction (    0%):    0.000000 | Momentum (    0%):    0.000000

Surface name: left_plain_aileron_Wing1_Seg3

Total CL    (    9%):    0.002641 | Pressure (   99%):    0.002641 | Friction (    0%):    0.000000 | Momentum (    0%):    0.000000
Total CD    (   -5%):    0.003622 | Pressure (   99%):    0.003622 | Friction (    0%):    0.000000 | Momentum (    0%):    0.000000
Total CSF   (   39%):    0.001566 | Pressure (   99%):    0.001566 | Friction (    0%):    0.000000 | Momentum (    0%):    0.000000
Total CL/CD ( -173%):    0.729031 | Pressure (   99%):    0.729031 | Friction (    0%):    0.000000 | Momentum (    0%):    0.000000
Total CMx   (-22572%):   -0.005206 | Pressure (  100%):   -0.005206 | Friction (    0%):    0.000000 | Momentum (    0%):    0.000000
Total CMy   (   24%):   -0.012440 | Pressure (  100%):   -0.012440 | Friction (    0%):    0.000000 | Momentum (    0%):    0.000000
Total CMz   (   52%):    0.015575 | Pressure (   99%):    0.015575 | Friction (    0%):    0.000000 | Momentum (    0%):    0.000000
Total CFx   (   -5%):    0.003622 | Pressure (   99%):    0.003622 | Friction (    0%):    0.000000 | Momentum (    0%):    0.000000
Total CFy   (   39%):    0.001566 | Pressure (   99%):    0.001566 | Friction (    0%):    0.000000 | Momentum (    0%):    0.000000
Total CFz   (    9%):    0.002641 | Pressure (   99%):    0.002641 | Friction (    0%):    0.000000 | Momentum (    0%):    0.000000

Surface name: plain_flap_Wing1_Seg2

Total CL    (   31%):    0.008377 | Pressure (   99%):    0.008377 | Friction (    0%):    0.000000 | Momentum (    0%):    0.000000
Total CD    (    0%):    0.000403 | Pressure (   99%):    0.000403 | Friction (    0%):    0.000000 | Momentum (    0%):    0.000000
Total CSF   (  -17%):   -0.000683 | Pressure (  100%):   -0.000683 | Friction (    0%):    0.000000 | Momentum (    0%):    0.000000
Total CL/CD (-4939%):   20.788078 | Pressure (  100%):   20.788078 | Friction (    0%):    0.000000 | Momentum (    0%):    0.000000
Total CMx   (33311%):    0.007683 | Pressure (   99%):    0.007683 | Friction (    0%):    0.000000 | Momentum (    0%):    0.000000
Total CMy   (   70%):   -0.036230 | Pressure (  100%):   -0.036230 | Friction (    0%):    0.000000 | Momentum (    0%):    0.000000
Total CMz   (  -10%):   -0.003235 | Pressure (  100%):   -0.003235 | Friction (    0%):    0.000000 | Momentum (    0%):    0.000000
Total CFx   (    0%):    0.000403 | Pressure (   99%):    0.000403 | Friction (    0%):    0.000000 | Momentum (    0%):    0.000000
Total CFy   (  -17%):   -0.000683 | Pressure (  100%):   -0.000683 | Friction (    0%):    0.000000 | Momentum (    0%):    0.000000
Total CFz   (   31%):    0.008377 | Pressure (   99%):    0.008377 | Friction (    0%):    0.000000 | Momentum (    0%):    0.000000

Surface name: plain_flap_Wing1_Seg2_mirrored

Total CL    (   25%):    0.006813 | Pressure (   99%):    0.006813 | Friction (    0%):    0.000000 | Momentum (    0%):    0.000000
Total CD    (   -1%):    0.000868 | Pressure (   99%):    0.000868 | Friction (    0%):    0.000000 | Momentum (    0%):    0.000000
Total CSF   (   14%):    0.000589 | Pressure (   99%):    0.000589 | Friction (    0%):    0.000000 | Momentum (    0%):    0.000000
Total CL/CD (-1865%):    7.851990 | Pressure (  100%):    7.851990 | Friction (    0%):    0.000000 | Momentum (    0%):    0.000000
Total CMx   (-28433%):   -0.006558 | Pressure (  100%):   -0.006558 | Friction (    0%):    0.000000 | Momentum (    0%):    0.000000
Total CMy   (   57%):   -0.029618 | Pressure (  100%):   -0.029618 | Friction (    0%):    0.000000 | Momentum (    0%):    0.000000
Total CMz   (   11%):    0.003317 | Pressure (   99%):    0.003317 | Friction (    0%):    0.000000 | Momentum (    0%):    0.000000
Total CFx   (   -1%):    0.000868 | Pressure (   99%):    0.000868 | Friction (    0%):    0.000000 | Momentum (    0%):    0.000000
Total CFy   (   14%):    0.000589 | Pressure (   99%):    0.000589 | Friction (    0%):    0.000000 | Momentum (    0%):    0.000000
Total CFz   (   25%):    0.006813 | Pressure (   99%):    0.006813 | Friction (    0%):    0.000000 | Momentum (    0%):    0.000000

Surface name: plain_rudder_Wing3V_Seg1

Total CL    (   -4%):   -0.001175 | Pressure (  100%):   -0.001175 | Friction (    0%):    0.000000 | Momentum (    0%):    0.000000
Total CD    (   -3%):    0.002482 | Pressure (   99%):    0.002482 | Friction (    0%):    0.000000 | Momentum (    0%):    0.000000
Total CSF   (   55%):    0.002224 | Pressure (   99%):    0.002224 | Friction (    0%):    0.000000 | Momentum (    0%):    0.000000
Total CL/CD (  112%):   -0.473237 | Pressure (  100%):   -0.473237 | Friction (    0%):    0.000000 | Momentum (    0%):    0.000000
Total CMx   (-10344%):   -0.002386 | Pressure (  100%):   -0.002386 | Friction (    0%):    0.000000 | Momentum (    0%):    0.000000
Total CMy   (  -23%):    0.012033 | Pressure (   99%):    0.012033 | Friction (    0%):    0.000000 | Momentum (    0%):    0.000000
Total CMz   (   64%):    0.018935 | Pressure (   99%):    0.018935 | Friction (    0%):    0.000000 | Momentum (    0%):    0.000000
Total CFx   (   -3%):    0.002482 | Pressure (   99%):    0.002482 | Friction (    0%):    0.000000 | Momentum (    0%):    0.000000
Total CFy   (   55%):    0.002224 | Pressure (   99%):    0.002224 | Friction (    0%):    0.000000 | Momentum (    0%):    0.000000
Total CFz   (   -4%):   -0.001175 | Pressure (  100%):   -0.001175 | Friction (    0%):    0.000000 | Momentum (    0%):    0.000000

Surface name: right_plain_aileron_Wing1_Seg3

Total CL    (    6%):    0.001835 | Pressure (   99%):    0.001835 | Friction (    0%):    0.000000 | Momentum (    0%):    0.000000
Total CD    (   -5%):    0.003770 | Pressure (   99%):    0.003770 | Friction (    0%):    0.000000 | Momentum (    0%):    0.000000
Total CSF   (  -37%):   -0.001491 | Pressure (  100%):   -0.001491 | Friction (    0%):    0.000000 | Momentum (    0%):    0.000000
Total CL/CD ( -115%):    0.486686 | Pressure (   99%):    0.486686 | Friction (    0%):    0.000000 | Momentum (    0%):    0.000000
Total CMx   (15290%):    0.003527 | Pressure (   99%):    0.003527 | Friction (    0%):    0.000000 | Momentum (    0%):    0.000000
Total CMy   (   17%):   -0.008818 | Pressure (  100%):   -0.008818 | Friction (    0%):    0.000000 | Momentum (    0%):    0.000000
Total CMz   (  -52%):   -0.015507 | Pressure (  100%):   -0.015507 | Friction (    0%):    0.000000 | Momentum (    0%):    0.000000
Total CFx   (   -5%):    0.003770 | Pressure (   99%):    0.003770 | Friction (    0%):    0.000000 | Momentum (    0%):    0.000000
Total CFy   (  -37%):   -0.001491 | Pressure (  100%):   -0.001491 | Friction (    0%):    0.000000 | Momentum (    0%):    0.000000
Total CFz   (    6%):    0.001835 | Pressure (   99%):    0.001835 | Friction (    0%):    0.000000 | Momentum (    0%):    0.000000

