
-------------------------------------------------------------------------
|    ___ _   _ ___                                                      |
|   / __| | | |_  )   Release 8.1.0 "Harrier"                           |
|   \__ \ |_| |/ /                                                      |
|   |___/\___//___|   Suite (Computational Fluid Dynamics Code)         |
|                                                                       |
-------------------------------------------------------------------------
| SU2 Project Website: https://su2code.github.io                        |
|                                                                       |
| The SU2 Project is maintained by the SU2 Foundation                   |
| (http://su2foundation.org)                                            |
-------------------------------------------------------------------------
| Copyright 2012-2024, SU2 Contributors                                 |
|                                                                       |
| SU2 is free software; you can redistribute it and/or                  |
| modify it under the terms of the GNU Lesser General Public            |
| License as published by the Free Software Foundation; either          |
| version 2.1 of the License, or (at your option) any later version.    |
|                                                                       |
| SU2 is distributed in the hope that it will be useful,                |
| but WITHOUT ANY WARRANTY; without even the implied warranty of        |
| MERCHANTABILITY or FITNESS FOR A PARTICULAR PURPOSE. See the GNU      |
| Lesser General Public License for more details.                       |
|                                                                       |
| You should have received a copy of the GNU Lesser General Public      |
| License along with SU2. If not, see <http://www.gnu.org/licenses/>.   |
-------------------------------------------------------------------------


Problem definition:

Compressible Euler equations.
Mach number: 0.3.
Angle of attack (AoA): 0 deg, and angle of sideslip (AoS): 0 deg.
Non-Dimensional simulation (V=1.0, Rho=1.0, T=1.0 at the farfield).
The reference area is 122.4 m^2.
The reference length is 4.193 m.


Problem definition:

Inviscid flow: Computing density based on free-stream
temperature and pressure using the ideal gas law.
Force coefficients computed using MACH_MOTION.
-- Input conditions:
Fluid Model: STANDARD_AIR 
Specific gas constant: 287.058 N.m/kg.K.
Specific gas constant (non-dim): 7.93651
Specific Heat Ratio: 1.4000 
Free-stream static pressure: 101325 Pa.
Free-stream total pressure: 107853 Pa.
Free-stream temperature: 288.15 K.
Free-stream total temperature: 293.337 K.
Free-stream density: 1.22498 kg/m^3.
Free-stream velocity: (102.089, 0, 0) m/s. Magnitude: 102.089 m/s.
Free-stream total energy per unit mass: 212000 m^2/s^2.
Total time: 0 s. Time step: 3.61103 s.
-- Reference values:
Reference specific gas constant: 36.1693 N.m/kg.K.
Reference pressure: 12767 Pa.
Reference temperature: 288.15 K.
Reference density: 1.22498 kg/m^3.
Reference velocity: 102.089 m/s.
Reference energy per unit mass: 10422.2 m^2/s^2.
Reference time: 0.00979536 s.
-- Resulting non-dimensional state:
Mach number (non-dim): 0.3
Specific gas constant (non-dim): 7.93651
Free-stream temperature (non-dim): 1
Free-stream pressure (non-dim): 7.93651
Free-stream density (non-dim): 1
Free-stream velocity (non-dim): (1, 0, 0). Magnitude: 1
Free-stream total energy per unit mass (non-dim): 20.3413
Total time (non-dim): 0
Time step (non-dim): 368.646


Forces breakdown:

Center of Pressure: X=-0.702444Z+15.340145 m.

NOTE: Multiply forces by the non-dimensional factor: 61.200000, and the reference factor: 12766.950000
to obtain the dimensional force.

Total CL:       0.089838 | Pressure (   99%):    0.089838 | Friction (    0%):    0.000000 | Momentum (    0%):    0.000000
Total CD:      -0.063106 | Pressure (  100%):   -0.063106 | Friction (    0%):    0.000000 | Momentum (    0%):    0.000000
Total CSF:      0.004533 | Pressure (   99%):    0.004533 | Friction (    0%):    0.000000 | Momentum (    0%):    0.000000
Total CL/CD:   -1.423601 | Pressure (  100%):   -1.423601 | Friction (    0%):    0.000000 | Momentum (    0%):    0.000000
Total CMx:     -0.000291 | Pressure (  100%):   -0.000291 | Friction (    0%):    0.000000 | Momentum (    0%):    0.000000
Total CMy:     -0.328675 | Pressure (  100%):   -0.328675 | Friction (    0%):    0.000000 | Momentum (    0%):    0.000000
Total CMz:      0.033723 | Pressure (   99%):    0.033723 | Friction (    0%):    0.000000 | Momentum (    0%):    0.000000
Total CFx:     -0.063106 | Pressure (  100%):   -0.063106 | Friction (    0%):    0.000000 | Momentum (    0%):    0.000000
Total CFy:      0.004533 | Pressure (   99%):    0.004533 | Friction (    0%):    0.000000 | Momentum (    0%):    0.000000
Total CFz:      0.089838 | Pressure (   99%):    0.089838 | Friction (    0%):    0.000000 | Momentum (    0%):    0.000000


Surface name: Fuselage1

Total CL    (   25%):    0.023267 | Pressure (   99%):    0.023267 | Friction (    0%):    0.000000 | Momentum (    0%):    0.000000
Total CD    (   21%):   -0.013764 | Pressure (  100%):   -0.013764 | Friction (    0%):    0.000000 | Momentum (    0%):    0.000000
Total CSF   (   39%):    0.001808 | Pressure (   99%):    0.001808 | Friction (    0%):    0.000000 | Momentum (    0%):    0.000000
Total CL/CD (  118%):   -1.690442 | Pressure (  100%):   -1.690442 | Friction (    0%):    0.000000 | Momentum (    0%):    0.000000
Total CMx   (   56%):   -0.000165 | Pressure (  100%):   -0.000165 | Friction (    0%):    0.000000 | Momentum (    0%):    0.000000
Total CMy   (   35%):   -0.115804 | Pressure (  100%):   -0.115804 | Friction (    0%):    0.000000 | Momentum (    0%):    0.000000
Total CMz   (   34%):    0.011711 | Pressure (   99%):    0.011711 | Friction (    0%):    0.000000 | Momentum (    0%):    0.000000
Total CFx   (   21%):   -0.013764 | Pressure (  100%):   -0.013764 | Friction (    0%):    0.000000 | Momentum (    0%):    0.000000
Total CFy   (   39%):    0.001808 | Pressure (   99%):    0.001808 | Friction (    0%):    0.000000 | Momentum (    0%):    0.000000
Total CFz   (   25%):    0.023267 | Pressure (   99%):    0.023267 | Friction (    0%):    0.000000 | Momentum (    0%):    0.000000

Surface name: Wing1_Seg1

Total CL    (   -3%):   -0.002784 | Pressure (  100%):   -0.002784 | Friction (    0%):    0.000000 | Momentum (    0%):    0.000000
Total CD    (    0%):    0.000012 | Pressure (   99%):    0.000012 | Friction (    0%):    0.000000 | Momentum (    0%):    0.000000
Total CSF   (   -4%):   -0.000194 | Pressure (  100%):   -0.000194 | Friction (    0%):    0.000000 | Momentum (    0%):    0.000000
Total CL/CD (15830%): -225.363420 | Pressure (  100%): -225.363420 | Friction (    0%):    0.000000 | Momentum (    0%):    0.000000
Total CMx   (  368%):   -0.001073 | Pressure (  100%):   -0.001073 | Friction (    0%):    0.000000 | Momentum (    0%):    0.000000
Total CMy   (   -2%):    0.009143 | Pressure (   99%):    0.009143 | Friction (    0%):    0.000000 | Momentum (    0%):    0.000000
Total CMz   (   -2%):   -0.000851 | Pressure (  100%):   -0.000851 | Friction (    0%):    0.000000 | Momentum (    0%):    0.000000
Total CFx   (    0%):    0.000012 | Pressure (   99%):    0.000012 | Friction (    0%):    0.000000 | Momentum (    0%):    0.000000
Total CFy   (   -4%):   -0.000194 | Pressure (  100%):   -0.000194 | Friction (    0%):    0.000000 | Momentum (    0%):    0.000000
Total CFz   (   -3%):   -0.002784 | Pressure (  100%):   -0.002784 | Friction (    0%):    0.000000 | Momentum (    0%):    0.000000

Surface name: Wing1_Seg1_mirrored

Total CL    (   -3%):   -0.002708 | Pressure (  100%):   -0.002708 | Friction (    0%):    0.000000 | Momentum (    0%):    0.000000
Total CD    (    0%):    0.000003 | Pressure (   99%):    0.000003 | Friction (    0%):    0.000000 | Momentum (    0%):    0.000000
Total CSF   (    4%):    0.000201 | Pressure (   99%):    0.000201 | Friction (    0%):    0.000000 | Momentum (    0%):    0.000000
Total CL/CD (73399%): -1044.918421 | Pressure (  100%): -1044.918421 | Friction (    0%):    0.000000 | Momentum (    0%):    0.000000
Total CMx   ( -359%):    0.001048 | Pressure (   99%):    0.001048 | Friction (    0%):    0.000000 | Momentum (    0%):    0.000000
Total CMy   (   -2%):    0.008858 | Pressure (   99%):    0.008858 | Friction (    0%):    0.000000 | Momentum (    0%):    0.000000
Total CMz   (    2%):    0.000881 | Pressure (   99%):    0.000881 | Friction (    0%):    0.000000 | Momentum (    0%):    0.000000
Total CFx   (    0%):    0.000003 | Pressure (   99%):    0.000003 | Friction (    0%):    0.000000 | Momentum (    0%):    0.000000
Total CFy   (    4%):    0.000201 | Pressure (   99%):    0.000201 | Friction (    0%):    0.000000 | Momentum (    0%):    0.000000
Total CFz   (   -3%):   -0.002708 | Pressure (  100%):   -0.002708 | Friction (    0%):    0.000000 | Momentum (    0%):    0.000000

Surface name: Wing1_Seg2

Total CL    (   14%):    0.013117 | Pressure (   99%):    0.013117 | Friction (    0%):    0.000000 | Momentum (    0%):    0.000000
Total CD    (   16%):   -0.010573 | Pressure (  100%):   -0.010573 | Friction (    0%):    0.000000 | Momentum (    0%):    0.000000
Total CSF   (  101%):    0.004619 | Pressure (   99%):    0.004619 | Friction (    0%):    0.000000 | Momentum (    0%):    0.000000
Total CL/CD (   87%):   -1.240621 | Pressure (  100%):   -1.240621 | Friction (    0%):    0.000000 | Momentum (    0%):    0.000000
Total CMx   (-4575%):    0.013320 | Pressure (   99%):    0.013320 | Friction (    0%):    0.000000 | Momentum (    0%):    0.000000
Total CMy   (   12%):   -0.040740 | Pressure (  100%):   -0.040740 | Friction (    0%):    0.000000 | Momentum (    0%):    0.000000
Total CMz   (   82%):    0.027755 | Pressure (   99%):    0.027755 | Friction (    0%):    0.000000 | Momentum (    0%):    0.000000
Total CFx   (   16%):   -0.010573 | Pressure (  100%):   -0.010573 | Friction (    0%):    0.000000 | Momentum (    0%):    0.000000
Total CFy   (  101%):    0.004619 | Pressure (   99%):    0.004619 | Friction (    0%):    0.000000 | Momentum (    0%):    0.000000
Total CFz   (   14%):    0.013117 | Pressure (   99%):    0.013117 | Friction (    0%):    0.000000 | Momentum (    0%):    0.000000

Surface name: Wing1_Seg2_mirrored

Total CL    (   15%):    0.013614 | Pressure (   99%):    0.013614 | Friction (    0%):    0.000000 | Momentum (    0%):    0.000000
Total CD    (   16%):   -0.010488 | Pressure (  100%):   -0.010488 | Friction (    0%):    0.000000 | Momentum (    0%):    0.000000
Total CSF   (  -99%):   -0.004490 | Pressure (  100%):   -0.004490 | Friction (    0%):    0.000000 | Momentum (    0%):    0.000000
Total CL/CD (   91%):   -1.298041 | Pressure (  100%):   -1.298041 | Friction (    0%):    0.000000 | Momentum (    0%):    0.000000
Total CMx   ( 4788%):   -0.013942 | Pressure (  100%):   -0.013942 | Friction (    0%):    0.000000 | Momentum (    0%):    0.000000
Total CMy   (   13%):   -0.042868 | Pressure (  100%):   -0.042868 | Friction (    0%):    0.000000 | Momentum (    0%):    0.000000
Total CMz   (  -80%):   -0.027181 | Pressure (  100%):   -0.027181 | Friction (    0%):    0.000000 | Momentum (    0%):    0.000000
Total CFx   (   16%):   -0.010488 | Pressure (  100%):   -0.010488 | Friction (    0%):    0.000000 | Momentum (    0%):    0.000000
Total CFy   (  -99%):   -0.004490 | Pressure (  100%):   -0.004490 | Friction (    0%):    0.000000 | Momentum (    0%):    0.000000
Total CFz   (   15%):    0.013614 | Pressure (   99%):    0.013614 | Friction (    0%):    0.000000 | Momentum (    0%):    0.000000

Surface name: Wing1_Seg3

Total CL    (   20%):    0.018205 | Pressure (   99%):    0.018205 | Friction (    0%):    0.000000 | Momentum (    0%):    0.000000
Total CD    (   18%):   -0.011840 | Pressure (  100%):   -0.011840 | Friction (    0%):    0.000000 | Momentum (    0%):    0.000000
Total CSF   (  103%):    0.004674 | Pressure (   99%):    0.004674 | Friction (    0%):    0.000000 | Momentum (    0%):    0.000000
Total CL/CD (  108%):   -1.537502 | Pressure (  100%):   -1.537502 | Friction (    0%):    0.000000 | Momentum (    0%):    0.000000
Total CMx   (-16294%):    0.047439 | Pressure (   99%):    0.047439 | Friction (    0%):    0.000000 | Momentum (    0%):    0.000000
Total CMy   (   22%):   -0.074955 | Pressure (  100%):   -0.074955 | Friction (    0%):    0.000000 | Momentum (    0%):    0.000000
Total CMz   (  155%):    0.052600 | Pressure (   99%):    0.052600 | Friction (    0%):    0.000000 | Momentum (    0%):    0.000000
Total CFx   (   18%):   -0.011840 | Pressure (  100%):   -0.011840 | Friction (    0%):    0.000000 | Momentum (    0%):    0.000000
Total CFy   (  103%):    0.004674 | Pressure (   99%):    0.004674 | Friction (    0%):    0.000000 | Momentum (    0%):    0.000000
Total CFz   (   20%):    0.018205 | Pressure (   99%):    0.018205 | Friction (    0%):    0.000000 | Momentum (    0%):    0.000000

Surface name: Wing1_Seg3_mirrored

Total CL    (   19%):    0.017259 | Pressure (   99%):    0.017259 | Friction (    0%):    0.000000 | Momentum (    0%):    0.000000
Total CD    (   19%):   -0.012102 | Pressure (  100%):   -0.012102 | Friction (    0%):    0.000000 | Momentum (    0%):    0.000000
Total CSF   ( -106%):   -0.004820 | Pressure (  100%):   -0.004820 | Friction (    0%):    0.000000 | Momentum (    0%):    0.000000
Total CL/CD (  100%):   -1.426165 | Pressure (  100%):   -1.426165 | Friction (    0%):    0.000000 | Momentum (    0%):    0.000000
Total CMx   (15415%):   -0.044882 | Pressure (  100%):   -0.044882 | Friction (    0%):    0.000000 | Momentum (    0%):    0.000000
Total CMy   (   21%):   -0.070560 | Pressure (  100%):   -0.070560 | Friction (    0%):    0.000000 | Momentum (    0%):    0.000000
Total CMz   ( -159%):   -0.053888 | Pressure (  100%):   -0.053888 | Friction (    0%):    0.000000 | Momentum (    0%):    0.000000
Total CFx   (   19%):   -0.012102 | Pressure (  100%):   -0.012102 | Friction (    0%):    0.000000 | Momentum (    0%):    0.000000
Total CFy   ( -106%):   -0.004820 | Pressure (  100%):   -0.004820 | Friction (    0%):    0.000000 | Momentum (    0%):    0.000000
Total CFz   (   19%):    0.017259 | Pressure (   99%):    0.017259 | Friction (    0%):    0.000000 | Momentum (    0%):    0.000000

Surface name: Wing2H_Seg1

Total CL    (   -9%):   -0.008945 | Pressure (  100%):   -0.008945 | Friction (    0%):    0.000000 | Momentum (    0%):    0.000000
Total CD    (    6%):   -0.003923 | Pressure (  100%):   -0.003923 | Friction (    0%):    0.000000 | Momentum (    0%):    0.000000
Total CSF   (   72%):    0.003277 | Pressure (   99%):    0.003277 | Friction (    0%):    0.000000 | Momentum (    0%):    0.000000
Total CL/CD ( -160%):    2.279907 | Pressure (  100%):    2.279907 | Friction (    0%):    0.000000 | Momentum (    0%):    0.000000
Total CMx   ( 2528%):   -0.007362 | Pressure (  100%):   -0.007362 | Friction (    0%):    0.000000 | Momentum (    0%):    0.000000
Total CMy   (  -21%):    0.071300 | Pressure (   99%):    0.071300 | Friction (    0%):    0.000000 | Momentum (    0%):    0.000000
Total CMz   (   88%):    0.029935 | Pressure (   99%):    0.029935 | Friction (    0%):    0.000000 | Momentum (    0%):    0.000000
Total CFx   (    6%):   -0.003923 | Pressure (  100%):   -0.003923 | Friction (    0%):    0.000000 | Momentum (    0%):    0.000000
Total CFy   (   72%):    0.003277 | Pressure (   99%):    0.003277 | Friction (    0%):    0.000000 | Momentum (    0%):    0.000000
Total CFz   (   -9%):   -0.008945 | Pressure (  100%):   -0.008945 | Friction (    0%):    0.000000 | Momentum (    0%):    0.000000

Surface name: Wing2H_Seg1_mirrored

Total CL    (  -11%):   -0.010165 | Pressure (  100%):   -0.010165 | Friction (    0%):    0.000000 | Momentum (    0%):    0.000000
Total CD    (    6%):   -0.003822 | Pressure (  100%):   -0.003822 | Friction (    0%):    0.000000 | Momentum (    0%):    0.000000
Total CSF   (  -72%):   -0.003286 | Pressure (  100%):   -0.003286 | Friction (    0%):    0.000000 | Momentum (    0%):    0.000000
Total CL/CD ( -186%):    2.659506 | Pressure (  100%):    2.659506 | Friction (    0%):    0.000000 | Momentum (    0%):    0.000000
Total CMx   (-2874%):    0.008368 | Pressure (   99%):    0.008368 | Friction (    0%):    0.000000 | Momentum (    0%):    0.000000
Total CMy   (  -24%):    0.081570 | Pressure (   99%):    0.081570 | Friction (    0%):    0.000000 | Momentum (    0%):    0.000000
Total CMz   (  -88%):   -0.029902 | Pressure (  100%):   -0.029902 | Friction (    0%):    0.000000 | Momentum (    0%):    0.000000
Total CFx   (    6%):   -0.003822 | Pressure (  100%):   -0.003822 | Friction (    0%):    0.000000 | Momentum (    0%):    0.000000
Total CFy   (  -72%):   -0.003286 | Pressure (  100%):   -0.003286 | Friction (    0%):    0.000000 | Momentum (    0%):    0.000000
Total CFz   (  -11%):   -0.010165 | Pressure (  100%):   -0.010165 | Friction (    0%):    0.000000 | Momentum (    0%):    0.000000

Surface name: Wing3V_Seg1

Total CL    (    3%):    0.003009 | Pressure (   99%):    0.003009 | Friction (    0%):    0.000000 | Momentum (    0%):    0.000000
Total CD    (    5%):   -0.003386 | Pressure (  100%):   -0.003386 | Friction (    0%):    0.000000 | Momentum (    0%):    0.000000
Total CSF   ( -431%):   -0.019581 | Pressure (  100%):   -0.019581 | Friction (    0%):    0.000000 | Momentum (    0%):    0.000000
Total CL/CD (   62%):   -0.888690 | Pressure (  100%):   -0.888690 | Friction (    0%):    0.000000 | Momentum (    0%):    0.000000
Total CMx   (-6666%):    0.019407 | Pressure (   99%):    0.019407 | Friction (    0%):    0.000000 | Momentum (    0%):    0.000000
Total CMy   (    8%):   -0.027404 | Pressure (  100%):   -0.027404 | Friction (    0%):    0.000000 | Momentum (    0%):    0.000000
Total CMz   ( -454%):   -0.153148 | Pressure (  100%):   -0.153148 | Friction (    0%):    0.000000 | Momentum (    0%):    0.000000
Total CFx   (    5%):   -0.003386 | Pressure (  100%):   -0.003386 | Friction (    0%):    0.000000 | Momentum (    0%):    0.000000
Total CFy   ( -431%):   -0.019581 | Pressure (  100%):   -0.019581 | Friction (    0%):    0.000000 | Momentum (    0%):    0.000000
Total CFz   (    3%):    0.003009 | Pressure (   99%):    0.003009 | Friction (    0%):    0.000000 | Momentum (    0%):    0.000000

Surface name: Wing3V_Seg1_mirrored

Total CL    (    4%):    0.003752 | Pressure (   99%):    0.003752 | Friction (    0%):    0.000000 | Momentum (    0%):    0.000000
Total CD    (    6%):   -0.004385 | Pressure (  100%):   -0.004385 | Friction (    0%):    0.000000 | Momentum (    0%):    0.000000
Total CSF   (  441%):    0.020020 | Pressure (   99%):    0.020020 | Friction (    0%):    0.000000 | Momentum (    0%):    0.000000
Total CL/CD (   60%):   -0.855594 | Pressure (  100%):   -0.855594 | Friction (    0%):    0.000000 | Momentum (    0%):    0.000000
Total CMx   ( 6727%):   -0.019585 | Pressure (  100%):   -0.019585 | Friction (    0%):    0.000000 | Momentum (    0%):    0.000000
Total CMy   (   10%):   -0.034655 | Pressure (  100%):   -0.034655 | Friction (    0%):    0.000000 | Momentum (    0%):    0.000000
Total CMz   (  462%):    0.155840 | Pressure (   99%):    0.155840 | Friction (    0%):    0.000000 | Momentum (    0%):    0.000000
Total CFx   (    6%):   -0.004385 | Pressure (  100%):   -0.004385 | Friction (    0%):    0.000000 | Momentum (    0%):    0.000000
Total CFy   (  441%):    0.020020 | Pressure (   99%):    0.020020 | Friction (    0%):    0.000000 | Momentum (    0%):    0.000000
Total CFz   (    4%):    0.003752 | Pressure (   99%):    0.003752 | Friction (    0%):    0.000000 | Momentum (    0%):    0.000000

Surface name: left_plain_aileron_Wing1_Seg3

Total CL    (    4%):    0.003829 | Pressure (   99%):    0.003829 | Friction (    0%):    0.000000 | Momentum (    0%):    0.000000
Total CD    (   -5%):    0.003654 | Pressure (   99%):    0.003654 | Friction (    0%):    0.000000 | Momentum (    0%):    0.000000
Total CSF   (   36%):    0.001660 | Pressure (   99%):    0.001660 | Friction (    0%):    0.000000 | Momentum (    0%):    0.000000
Total CL/CD (  -73%):    1.047938 | Pressure (  100%):    1.047938 | Friction (    0%):    0.000000 | Momentum (    0%):    0.000000
Total CMx   ( 2866%):   -0.008344 | Pressure (  100%):   -0.008344 | Friction (    0%):    0.000000 | Momentum (    0%):    0.000000
Total CMy   (    5%):   -0.018173 | Pressure (  100%):   -0.018173 | Friction (    0%):    0.000000 | Momentum (    0%):    0.000000
Total CMz   (   47%):    0.016108 | Pressure (   99%):    0.016108 | Friction (    0%):    0.000000 | Momentum (    0%):    0.000000
Total CFx   (   -5%):    0.003654 | Pressure (   99%):    0.003654 | Friction (    0%):    0.000000 | Momentum (    0%):    0.000000
Total CFy   (   36%):    0.001660 | Pressure (   99%):    0.001660 | Friction (    0%):    0.000000 | Momentum (    0%):    0.000000
Total CFz   (    4%):    0.003829 | Pressure (   99%):    0.003829 | Friction (    0%):    0.000000 | Momentum (    0%):    0.000000

Surface name: plain_flap_Wing1_Seg2

Total CL    (   10%):    0.009059 | Pressure (   99%):    0.009059 | Friction (    0%):    0.000000 | Momentum (    0%):    0.000000
Total CD    (    0%):    0.000463 | Pressure (   99%):    0.000463 | Friction (    0%):    0.000000 | Momentum (    0%):    0.000000
Total CSF   (  -16%):   -0.000739 | Pressure (  100%):   -0.000739 | Friction (    0%):    0.000000 | Momentum (    0%):    0.000000
Total CL/CD (-1374%):   19.560944 | Pressure (  100%):   19.560944 | Friction (    0%):    0.000000 | Momentum (    0%):    0.000000
Total CMx   (-2862%):    0.008335 | Pressure (   99%):    0.008335 | Friction (    0%):    0.000000 | Momentum (    0%):    0.000000
Total CMy   (   11%):   -0.039186 | Pressure (  100%):   -0.039186 | Friction (    0%):    0.000000 | Momentum (    0%):    0.000000
Total CMz   (  -10%):   -0.003525 | Pressure (  100%):   -0.003525 | Friction (    0%):    0.000000 | Momentum (    0%):    0.000000
Total CFx   (    0%):    0.000463 | Pressure (   99%):    0.000463 | Friction (    0%):    0.000000 | Momentum (    0%):    0.000000
Total CFy   (  -16%):   -0.000739 | Pressure (  100%):   -0.000739 | Friction (    0%):    0.000000 | Momentum (    0%):    0.000000
Total CFz   (   10%):    0.009059 | Pressure (   99%):    0.009059 | Friction (    0%):    0.000000 | Momentum (    0%):    0.000000

Surface name: plain_flap_Wing1_Seg2_mirrored

Total CL    (    8%):    0.007507 | Pressure (   99%):    0.007507 | Friction (    0%):    0.000000 | Momentum (    0%):    0.000000
Total CD    (   -1%):    0.000917 | Pressure (   99%):    0.000917 | Friction (    0%):    0.000000 | Momentum (    0%):    0.000000
Total CSF   (   14%):    0.000646 | Pressure (   99%):    0.000646 | Friction (    0%):    0.000000 | Momentum (    0%):    0.000000
Total CL/CD ( -575%):    8.190453 | Pressure (  100%):    8.190453 | Friction (    0%):    0.000000 | Momentum (    0%):    0.000000
Total CMx   ( 2481%):   -0.007226 | Pressure (  100%):   -0.007226 | Friction (    0%):    0.000000 | Momentum (    0%):    0.000000
Total CMy   (    9%):   -0.032633 | Pressure (  100%):   -0.032633 | Friction (    0%):    0.000000 | Momentum (    0%):    0.000000
Total CMz   (   10%):    0.003604 | Pressure (   99%):    0.003604 | Friction (    0%):    0.000000 | Momentum (    0%):    0.000000
Total CFx   (   -1%):    0.000917 | Pressure (   99%):    0.000917 | Friction (    0%):    0.000000 | Momentum (    0%):    0.000000
Total CFy   (   14%):    0.000646 | Pressure (   99%):    0.000646 | Friction (    0%):    0.000000 | Momentum (    0%):    0.000000
Total CFz   (    8%):    0.007507 | Pressure (   99%):    0.007507 | Friction (    0%):    0.000000 | Momentum (    0%):    0.000000

Surface name: plain_rudder_Wing3V_Seg1

Total CL    (   -1%):   -0.001221 | Pressure (  100%):   -0.001221 | Friction (    0%):    0.000000 | Momentum (    0%):    0.000000
Total CD    (   -3%):    0.002340 | Pressure (   99%):    0.002340 | Friction (    0%):    0.000000 | Momentum (    0%):    0.000000
Total CSF   (   51%):    0.002322 | Pressure (   99%):    0.002322 | Friction (    0%):    0.000000 | Momentum (    0%):    0.000000
Total CL/CD (   36%):   -0.521718 | Pressure (  100%):   -0.521718 | Friction (    0%):    0.000000 | Momentum (    0%):    0.000000
Total CMx   (  811%):   -0.002364 | Pressure (  100%):   -0.002364 | Friction (    0%):    0.000000 | Momentum (    0%):    0.000000
Total CMy   (   -3%):    0.012082 | Pressure (   99%):    0.012082 | Friction (    0%):    0.000000 | Momentum (    0%):    0.000000
Total CMz   (   58%):    0.019804 | Pressure (   99%):    0.019804 | Friction (    0%):    0.000000 | Momentum (    0%):    0.000000
Total CFx   (   -3%):    0.002340 | Pressure (   99%):    0.002340 | Friction (    0%):    0.000000 | Momentum (    0%):    0.000000
Total CFy   (   51%):    0.002322 | Pressure (   99%):    0.002322 | Friction (    0%):    0.000000 | Momentum (    0%):    0.000000
Total CFz   (   -1%):   -0.001221 | Pressure (  100%):   -0.001221 | Friction (    0%):    0.000000 | Momentum (    0%):    0.000000

Surface name: right_plain_aileron_Wing1_Seg3

Total CL    (    3%):    0.003043 | Pressure (   99%):    0.003043 | Friction (    0%):    0.000000 | Momentum (    0%):    0.000000
Total CD    (   -6%):    0.003788 | Pressure (   99%):    0.003788 | Friction (    0%):    0.000000 | Momentum (    0%):    0.000000
Total CSF   (  -34%):   -0.001584 | Pressure (  100%):   -0.001584 | Friction (    0%):    0.000000 | Momentum (    0%):    0.000000
Total CL/CD (  -56%):    0.803296 | Pressure (  100%):    0.803296 | Friction (    0%):    0.000000 | Momentum (    0%):    0.000000
Total CMx   (-2312%):    0.006733 | Pressure (   99%):    0.006733 | Friction (    0%):    0.000000 | Momentum (    0%):    0.000000
Total CMy   (    4%):   -0.014649 | Pressure (  100%):   -0.014649 | Friction (    0%):    0.000000 | Momentum (    0%):    0.000000
Total CMz   (  -47%):   -0.016019 | Pressure (  100%):   -0.016019 | Friction (    0%):    0.000000 | Momentum (    0%):    0.000000
Total CFx   (   -6%):    0.003788 | Pressure (   99%):    0.003788 | Friction (    0%):    0.000000 | Momentum (    0%):    0.000000
Total CFy   (  -34%):   -0.001584 | Pressure (  100%):   -0.001584 | Friction (    0%):    0.000000 | Momentum (    0%):    0.000000
Total CFz   (    3%):    0.003043 | Pressure (   99%):    0.003043 | Friction (    0%):    0.000000 | Momentum (    0%):    0.000000

