
-------------------------------------------------------------------------
|    ___ _   _ ___                                                      |
|   / __| | | |_  )   Release 8.1.0 "Harrier"                           |
|   \__ \ |_| |/ /                                                      |
|   |___/\___//___|   Suite (Computational Fluid Dynamics Code)         |
|                                                                       |
-------------------------------------------------------------------------
| SU2 Project Website: https://su2code.github.io                        |
|                                                                       |
| The SU2 Project is maintained by the SU2 Foundation                   |
| (http://su2foundation.org)                                            |
-------------------------------------------------------------------------
| Copyright 2012-2024, SU2 Contributors                                 |
|                                                                       |
| SU2 is free software; you can redistribute it and/or                  |
| modify it under the terms of the GNU Lesser General Public            |
| License as published by the Free Software Foundation; either          |
| version 2.1 of the License, or (at your option) any later version.    |
|                                                                       |
| SU2 is distributed in the hope that it will be useful,                |
| but WITHOUT ANY WARRANTY; without even the implied warranty of        |
| MERCHANTABILITY or FITNESS FOR A PARTICULAR PURPOSE. See the GNU      |
| Lesser General Public License for more details.                       |
|                                                                       |
| You should have received a copy of the GNU Lesser General Public      |
| License along with SU2. If not, see <http://www.gnu.org/licenses/>.   |
-------------------------------------------------------------------------


Problem definition:

Compressible Euler equations.
Mach number: 0.3.
Angle of attack (AoA): 0 deg, and angle of sideslip (AoS): 0 deg.
Non-Dimensional simulation (V=1.0, Rho=1.0, T=1.0 at the farfield).
The reference area is 122.4 m^2.
The reference length is 4.193 m.


Problem definition:

Inviscid flow: Computing density based on free-stream
temperature and pressure using the ideal gas law.
Force coefficients computed using MACH_MOTION.
-- Input conditions:
Fluid Model: STANDARD_AIR 
Specific gas constant: 287.058 N.m/kg.K.
Specific gas constant (non-dim): 7.93651
Specific Heat Ratio: 1.4000 
Free-stream static pressure: 101325 Pa.
Free-stream total pressure: 107853 Pa.
Free-stream temperature: 288.15 K.
Free-stream total temperature: 293.337 K.
Free-stream density: 1.22498 kg/m^3.
Free-stream velocity: (102.089, 0, 0) m/s. Magnitude: 102.089 m/s.
Free-stream total energy per unit mass: 212000 m^2/s^2.
Total time: 0 s. Time step: 3.61103 s.
-- Reference values:
Reference specific gas constant: 36.1693 N.m/kg.K.
Reference pressure: 12767 Pa.
Reference temperature: 288.15 K.
Reference density: 1.22498 kg/m^3.
Reference velocity: 102.089 m/s.
Reference energy per unit mass: 10422.2 m^2/s^2.
Reference time: 0.00979536 s.
-- Resulting non-dimensional state:
Mach number (non-dim): 0.3
Specific gas constant (non-dim): 7.93651
Free-stream temperature (non-dim): 1
Free-stream pressure (non-dim): 7.93651
Free-stream density (non-dim): 1
Free-stream velocity (non-dim): (1, 0, 0). Magnitude: 1
Free-stream total energy per unit mass (non-dim): 20.3413
Total time (non-dim): 0
Time step (non-dim): 368.646


Forces breakdown:

Center of Pressure: X=-0.978657Z+14.177075 m.

NOTE: Multiply forces by the non-dimensional factor: 61.200000, and the reference factor: 12766.950000
to obtain the dimensional force.

Total CL:       0.064595 | Pressure (   99%):    0.064595 | Friction (    0%):    0.000000 | Momentum (    0%):    0.000000
Total CD:      -0.063217 | Pressure (  100%):   -0.063217 | Friction (    0%):    0.000000 | Momentum (    0%):    0.000000
Total CSF:      0.004228 | Pressure (   99%):    0.004228 | Friction (    0%):    0.000000 | Momentum (    0%):    0.000000
Total CL/CD:   -1.021809 | Pressure (  100%):   -1.021809 | Friction (    0%):    0.000000 | Momentum (    0%):    0.000000
Total CMx:     -0.000076 | Pressure (  100%):   -0.000076 | Friction (    0%):    0.000000 | Momentum (    0%):    0.000000
Total CMy:     -0.218405 | Pressure (  100%):   -0.218405 | Friction (    0%):    0.000000 | Momentum (    0%):    0.000000
Total CMz:      0.031302 | Pressure (   99%):    0.031302 | Friction (    0%):    0.000000 | Momentum (    0%):    0.000000
Total CFx:     -0.063217 | Pressure (  100%):   -0.063217 | Friction (    0%):    0.000000 | Momentum (    0%):    0.000000
Total CFy:      0.004228 | Pressure (   99%):    0.004228 | Friction (    0%):    0.000000 | Momentum (    0%):    0.000000
Total CFz:      0.064595 | Pressure (   99%):    0.064595 | Friction (    0%):    0.000000 | Momentum (    0%):    0.000000


Surface name: Fuselage1

Total CL    (   31%):    0.020302 | Pressure (   99%):    0.020302 | Friction (    0%):    0.000000 | Momentum (    0%):    0.000000
Total CD    (   21%):   -0.013805 | Pressure (  100%):   -0.013805 | Friction (    0%):    0.000000 | Momentum (    0%):    0.000000
Total CSF   (   42%):    0.001798 | Pressure (   99%):    0.001798 | Friction (    0%):    0.000000 | Momentum (    0%):    0.000000
Total CL/CD (  143%):   -1.470590 | Pressure (  100%):   -1.470590 | Friction (    0%):    0.000000 | Momentum (    0%):    0.000000
Total CMx   (  247%):   -0.000188 | Pressure (  100%):   -0.000188 | Friction (    0%):    0.000000 | Momentum (    0%):    0.000000
Total CMy   (   48%):   -0.106584 | Pressure (  100%):   -0.106584 | Friction (    0%):    0.000000 | Momentum (    0%):    0.000000
Total CMz   (   37%):    0.011624 | Pressure (   99%):    0.011624 | Friction (    0%):    0.000000 | Momentum (    0%):    0.000000
Total CFx   (   21%):   -0.013805 | Pressure (  100%):   -0.013805 | Friction (    0%):    0.000000 | Momentum (    0%):    0.000000
Total CFy   (   42%):    0.001798 | Pressure (   99%):    0.001798 | Friction (    0%):    0.000000 | Momentum (    0%):    0.000000
Total CFz   (   31%):    0.020302 | Pressure (   99%):    0.020302 | Friction (    0%):    0.000000 | Momentum (    0%):    0.000000

Surface name: Wing1_Seg1

Total CL    (   -4%):   -0.002972 | Pressure (  100%):   -0.002972 | Friction (    0%):    0.000000 | Momentum (    0%):    0.000000
Total CD    (    0%):    0.000002 | Pressure (   99%):    0.000002 | Friction (    0%):    0.000000 | Momentum (    0%):    0.000000
Total CSF   (   -4%):   -0.000196 | Pressure (  100%):   -0.000196 | Friction (    0%):    0.000000 | Momentum (    0%):    0.000000
Total CL/CD (145272%): -1484.411911 | Pressure (  100%): -1484.411911 | Friction (    0%):    0.000000 | Momentum (    0%):    0.000000
Total CMx   ( 1504%):   -0.001145 | Pressure (  100%):   -0.001145 | Friction (    0%):    0.000000 | Momentum (    0%):    0.000000
Total CMy   (   -4%):    0.009805 | Pressure (   99%):    0.009805 | Friction (    0%):    0.000000 | Momentum (    0%):    0.000000
Total CMz   (   -2%):   -0.000855 | Pressure (  100%):   -0.000855 | Friction (    0%):    0.000000 | Momentum (    0%):    0.000000
Total CFx   (    0%):    0.000002 | Pressure (   99%):    0.000002 | Friction (    0%):    0.000000 | Momentum (    0%):    0.000000
Total CFy   (   -4%):   -0.000196 | Pressure (  100%):   -0.000196 | Friction (    0%):    0.000000 | Momentum (    0%):    0.000000
Total CFz   (   -4%):   -0.002972 | Pressure (  100%):   -0.002972 | Friction (    0%):    0.000000 | Momentum (    0%):    0.000000

Surface name: Wing1_Seg1_mirrored

Total CL    (   -4%):   -0.002895 | Pressure (  100%):   -0.002895 | Friction (    0%):    0.000000 | Momentum (    0%):    0.000000
Total CD    (    0%):   -0.000008 | Pressure (  100%):   -0.000008 | Friction (    0%):    0.000000 | Momentum (    0%):    0.000000
Total CSF   (    4%):    0.000201 | Pressure (   99%):    0.000201 | Friction (    0%):    0.000000 | Momentum (    0%):    0.000000
Total CL/CD (-37059%):  378.673786 | Pressure (  100%):  378.673786 | Friction (    0%):    0.000000 | Momentum (    0%):    0.000000
Total CMx   (-1469%):    0.001119 | Pressure (   99%):    0.001119 | Friction (    0%):    0.000000 | Momentum (    0%):    0.000000
Total CMy   (   -4%):    0.009517 | Pressure (   99%):    0.009517 | Friction (    0%):    0.000000 | Momentum (    0%):    0.000000
Total CMz   (    2%):    0.000879 | Pressure (   99%):    0.000879 | Friction (    0%):    0.000000 | Momentum (    0%):    0.000000
Total CFx   (    0%):   -0.000008 | Pressure (  100%):   -0.000008 | Friction (    0%):    0.000000 | Momentum (    0%):    0.000000
Total CFy   (    4%):    0.000201 | Pressure (   99%):    0.000201 | Friction (    0%):    0.000000 | Momentum (    0%):    0.000000
Total CFz   (   -4%):   -0.002895 | Pressure (  100%):   -0.002895 | Friction (    0%):    0.000000 | Momentum (    0%):    0.000000

Surface name: Wing1_Seg2

Total CL    (   14%):    0.009377 | Pressure (   99%):    0.009377 | Friction (    0%):    0.000000 | Momentum (    0%):    0.000000
Total CD    (   16%):   -0.010612 | Pressure (  100%):   -0.010612 | Friction (    0%):    0.000000 | Momentum (    0%):    0.000000
Total CSF   (  115%):    0.004878 | Pressure (   99%):    0.004878 | Friction (    0%):    0.000000 | Momentum (    0%):    0.000000
Total CL/CD (   86%):   -0.883671 | Pressure (  100%):   -0.883671 | Friction (    0%):    0.000000 | Momentum (    0%):    0.000000
Total CMx   (-12878%):    0.009800 | Pressure (   99%):    0.009800 | Friction (    0%):    0.000000 | Momentum (    0%):    0.000000
Total CMy   (   12%):   -0.027399 | Pressure (  100%):   -0.027399 | Friction (    0%):    0.000000 | Momentum (    0%):    0.000000
Total CMz   (   91%):    0.028738 | Pressure (   99%):    0.028738 | Friction (    0%):    0.000000 | Momentum (    0%):    0.000000
Total CFx   (   16%):   -0.010612 | Pressure (  100%):   -0.010612 | Friction (    0%):    0.000000 | Momentum (    0%):    0.000000
Total CFy   (  115%):    0.004878 | Pressure (   99%):    0.004878 | Friction (    0%):    0.000000 | Momentum (    0%):    0.000000
Total CFz   (   14%):    0.009377 | Pressure (   99%):    0.009377 | Friction (    0%):    0.000000 | Momentum (    0%):    0.000000

Surface name: Wing1_Seg2_mirrored

Total CL    (   15%):    0.009853 | Pressure (   99%):    0.009853 | Friction (    0%):    0.000000 | Momentum (    0%):    0.000000
Total CD    (   16%):   -0.010538 | Pressure (  100%):   -0.010538 | Friction (    0%):    0.000000 | Momentum (    0%):    0.000000
Total CSF   ( -112%):   -0.004757 | Pressure (  100%):   -0.004757 | Friction (    0%):    0.000000 | Momentum (    0%):    0.000000
Total CL/CD (   91%):   -0.934911 | Pressure (  100%):   -0.934911 | Friction (    0%):    0.000000 | Momentum (    0%):    0.000000
Total CMx   (13667%):   -0.010400 | Pressure (  100%):   -0.010400 | Friction (    0%):    0.000000 | Momentum (    0%):    0.000000
Total CMy   (   13%):   -0.029440 | Pressure (  100%):   -0.029440 | Friction (    0%):    0.000000 | Momentum (    0%):    0.000000
Total CMz   (  -90%):   -0.028207 | Pressure (  100%):   -0.028207 | Friction (    0%):    0.000000 | Momentum (    0%):    0.000000
Total CFx   (   16%):   -0.010538 | Pressure (  100%):   -0.010538 | Friction (    0%):    0.000000 | Momentum (    0%):    0.000000
Total CFy   ( -112%):   -0.004757 | Pressure (  100%):   -0.004757 | Friction (    0%):    0.000000 | Momentum (    0%):    0.000000
Total CFz   (   15%):    0.009853 | Pressure (   99%):    0.009853 | Friction (    0%):    0.000000 | Momentum (    0%):    0.000000

Surface name: Wing1_Seg3

Total CL    (   20%):    0.013151 | Pressure (   99%):    0.013151 | Friction (    0%):    0.000000 | Momentum (    0%):    0.000000
Total CD    (   18%):   -0.011959 | Pressure (  100%):   -0.011959 | Friction (    0%):    0.000000 | Momentum (    0%):    0.000000
Total CSF   (  119%):    0.005069 | Pressure (   99%):    0.005069 | Friction (    0%):    0.000000 | Momentum (    0%):    0.000000
Total CL/CD (  107%):   -1.099704 | Pressure (  100%):   -1.099704 | Friction (    0%):    0.000000 | Momentum (    0%):    0.000000
Total CMx   (-45609%):    0.034707 | Pressure (   99%):    0.034707 | Friction (    0%):    0.000000 | Momentum (    0%):    0.000000
Total CMy   (   24%):   -0.053410 | Pressure (  100%):   -0.053410 | Friction (    0%):    0.000000 | Momentum (    0%):    0.000000
Total CMz   (  174%):    0.054619 | Pressure (   99%):    0.054619 | Friction (    0%):    0.000000 | Momentum (    0%):    0.000000
Total CFx   (   18%):   -0.011959 | Pressure (  100%):   -0.011959 | Friction (    0%):    0.000000 | Momentum (    0%):    0.000000
Total CFy   (  119%):    0.005069 | Pressure (   99%):    0.005069 | Friction (    0%):    0.000000 | Momentum (    0%):    0.000000
Total CFz   (   20%):    0.013151 | Pressure (   99%):    0.013151 | Friction (    0%):    0.000000 | Momentum (    0%):    0.000000

Surface name: Wing1_Seg3_mirrored

Total CL    (   18%):    0.012178 | Pressure (   99%):    0.012178 | Friction (    0%):    0.000000 | Momentum (    0%):    0.000000
Total CD    (   19%):   -0.012214 | Pressure (  100%):   -0.012214 | Friction (    0%):    0.000000 | Momentum (    0%):    0.000000
Total CSF   ( -123%):   -0.005219 | Pressure (  100%):   -0.005219 | Friction (    0%):    0.000000 | Momentum (    0%):    0.000000
Total CL/CD (   97%):   -0.997049 | Pressure (  100%):   -0.997049 | Friction (    0%):    0.000000 | Momentum (    0%):    0.000000
Total CMx   (42163%):   -0.032085 | Pressure (  100%):   -0.032085 | Friction (    0%):    0.000000 | Momentum (    0%):    0.000000
Total CMy   (   22%):   -0.048904 | Pressure (  100%):   -0.048904 | Friction (    0%):    0.000000 | Momentum (    0%):    0.000000
Total CMz   ( -178%):   -0.055904 | Pressure (  100%):   -0.055904 | Friction (    0%):    0.000000 | Momentum (    0%):    0.000000
Total CFx   (   19%):   -0.012214 | Pressure (  100%):   -0.012214 | Friction (    0%):    0.000000 | Momentum (    0%):    0.000000
Total CFy   ( -123%):   -0.005219 | Pressure (  100%):   -0.005219 | Friction (    0%):    0.000000 | Momentum (    0%):    0.000000
Total CFz   (   18%):    0.012178 | Pressure (   99%):    0.012178 | Friction (    0%):    0.000000 | Momentum (    0%):    0.000000

Surface name: Wing2H_Seg1

Total CL    (  -16%):   -0.010401 | Pressure (  100%):   -0.010401 | Friction (    0%):    0.000000 | Momentum (    0%):    0.000000
Total CD    (    6%):   -0.003896 | Pressure (  100%):   -0.003896 | Friction (    0%):    0.000000 | Momentum (    0%):    0.000000
Total CSF   (   81%):    0.003426 | Pressure (   99%):    0.003426 | Friction (    0%):    0.000000 | Momentum (    0%):    0.000000
Total CL/CD ( -261%):    2.669294 | Pressure (  100%):    2.669294 | Friction (    0%):    0.000000 | Momentum (    0%):    0.000000
Total CMx   (11336%):   -0.008626 | Pressure (  100%):   -0.008626 | Friction (    0%):    0.000000 | Momentum (    0%):    0.000000
Total CMy   (  -38%):    0.083095 | Pressure (   99%):    0.083095 | Friction (    0%):    0.000000 | Momentum (    0%):    0.000000
Total CMz   (   99%):    0.031115 | Pressure (   99%):    0.031115 | Friction (    0%):    0.000000 | Momentum (    0%):    0.000000
Total CFx   (    6%):   -0.003896 | Pressure (  100%):   -0.003896 | Friction (    0%):    0.000000 | Momentum (    0%):    0.000000
Total CFy   (   81%):    0.003426 | Pressure (   99%):    0.003426 | Friction (    0%):    0.000000 | Momentum (    0%):    0.000000
Total CFz   (  -16%):   -0.010401 | Pressure (  100%):   -0.010401 | Friction (    0%):    0.000000 | Momentum (    0%):    0.000000

Surface name: Wing2H_Seg1_mirrored

Total CL    (  -17%):   -0.011521 | Pressure (  100%):   -0.011521 | Friction (    0%):    0.000000 | Momentum (    0%):    0.000000
Total CD    (    5%):   -0.003786 | Pressure (  100%):   -0.003786 | Friction (    0%):    0.000000 | Momentum (    0%):    0.000000
Total CSF   (  -80%):   -0.003424 | Pressure (  100%):   -0.003424 | Friction (    0%):    0.000000 | Momentum (    0%):    0.000000
Total CL/CD ( -297%):    3.042594 | Pressure (  100%):    3.042594 | Friction (    0%):    0.000000 | Momentum (    0%):    0.000000
Total CMx   (-12552%):    0.009552 | Pressure (   99%):    0.009552 | Friction (    0%):    0.000000 | Momentum (    0%):    0.000000
Total CMy   (  -42%):    0.092542 | Pressure (   99%):    0.092542 | Friction (    0%):    0.000000 | Momentum (    0%):    0.000000
Total CMz   (  -98%):   -0.030985 | Pressure (  100%):   -0.030985 | Friction (    0%):    0.000000 | Momentum (    0%):    0.000000
Total CFx   (    5%):   -0.003786 | Pressure (  100%):   -0.003786 | Friction (    0%):    0.000000 | Momentum (    0%):    0.000000
Total CFy   (  -80%):   -0.003424 | Pressure (  100%):   -0.003424 | Friction (    0%):    0.000000 | Momentum (    0%):    0.000000
Total CFz   (  -17%):   -0.011521 | Pressure (  100%):   -0.011521 | Friction (    0%):    0.000000 | Momentum (    0%):    0.000000

Surface name: Wing3V_Seg1

Total CL    (    4%):    0.003014 | Pressure (   99%):    0.003014 | Friction (    0%):    0.000000 | Momentum (    0%):    0.000000
Total CD    (    5%):   -0.003320 | Pressure (  100%):   -0.003320 | Friction (    0%):    0.000000 | Momentum (    0%):    0.000000
Total CSF   ( -451%):   -0.019094 | Pressure (  100%):   -0.019094 | Friction (    0%):    0.000000 | Momentum (    0%):    0.000000
Total CL/CD (   88%):   -0.907698 | Pressure (  100%):   -0.907698 | Friction (    0%):    0.000000 | Momentum (    0%):    0.000000
Total CMx   (-25027%):    0.019045 | Pressure (   99%):    0.019045 | Friction (    0%):    0.000000 | Momentum (    0%):    0.000000
Total CMy   (   12%):   -0.027385 | Pressure (  100%):   -0.027385 | Friction (    0%):    0.000000 | Momentum (    0%):    0.000000
Total CMz   ( -476%):   -0.149000 | Pressure (  100%):   -0.149000 | Friction (    0%):    0.000000 | Momentum (    0%):    0.000000
Total CFx   (    5%):   -0.003320 | Pressure (  100%):   -0.003320 | Friction (    0%):    0.000000 | Momentum (    0%):    0.000000
Total CFy   ( -451%):   -0.019094 | Pressure (  100%):   -0.019094 | Friction (    0%):    0.000000 | Momentum (    0%):    0.000000
Total CFz   (    4%):    0.003014 | Pressure (   99%):    0.003014 | Friction (    0%):    0.000000 | Momentum (    0%):    0.000000

Surface name: Wing3V_Seg1_mirrored

Total CL    (    5%):    0.003748 | Pressure (   99%):    0.003748 | Friction (    0%):    0.000000 | Momentum (    0%):    0.000000
Total CD    (    6%):   -0.004260 | Pressure (  100%):   -0.004260 | Friction (    0%):    0.000000 | Momentum (    0%):    0.000000
Total CSF   (  456%):    0.019315 | Pressure (   99%):    0.019315 | Friction (    0%):    0.000000 | Momentum (    0%):    0.000000
Total CL/CD (   86%):   -0.879946 | Pressure (  100%):   -0.879946 | Friction (    0%):    0.000000 | Momentum (    0%):    0.000000
Total CMx   (24983%):   -0.019011 | Pressure (  100%):   -0.019011 | Friction (    0%):    0.000000 | Momentum (    0%):    0.000000
Total CMy   (   15%):   -0.034485 | Pressure (  100%):   -0.034485 | Friction (    0%):    0.000000 | Momentum (    0%):    0.000000
Total CMz   (  479%):    0.149966 | Pressure (   99%):    0.149966 | Friction (    0%):    0.000000 | Momentum (    0%):    0.000000
Total CFx   (    6%):   -0.004260 | Pressure (  100%):   -0.004260 | Friction (    0%):    0.000000 | Momentum (    0%):    0.000000
Total CFy   (  456%):    0.019315 | Pressure (   99%):    0.019315 | Friction (    0%):    0.000000 | Momentum (    0%):    0.000000
Total CFz   (    5%):    0.003748 | Pressure (   99%):    0.003748 | Friction (    0%):    0.000000 | Momentum (    0%):    0.000000

Surface name: left_plain_aileron_Wing1_Seg3

Total CL    (    5%):    0.003352 | Pressure (   99%):    0.003352 | Friction (    0%):    0.000000 | Momentum (    0%):    0.000000
Total CD    (   -5%):    0.003639 | Pressure (   99%):    0.003639 | Friction (    0%):    0.000000 | Momentum (    0%):    0.000000
Total CSF   (   38%):    0.001623 | Pressure (   99%):    0.001623 | Friction (    0%):    0.000000 | Momentum (    0%):    0.000000
Total CL/CD (  -90%):    0.921003 | Pressure (   99%):    0.921003 | Friction (    0%):    0.000000 | Momentum (    0%):    0.000000
Total CMx   ( 9306%):   -0.007082 | Pressure (  100%):   -0.007082 | Friction (    0%):    0.000000 | Momentum (    0%):    0.000000
Total CMy   (    7%):   -0.015869 | Pressure (  100%):   -0.015869 | Friction (    0%):    0.000000 | Momentum (    0%):    0.000000
Total CMz   (   50%):    0.015891 | Pressure (   99%):    0.015891 | Friction (    0%):    0.000000 | Momentum (    0%):    0.000000
Total CFx   (   -5%):    0.003639 | Pressure (   99%):    0.003639 | Friction (    0%):    0.000000 | Momentum (    0%):    0.000000
Total CFy   (   38%):    0.001623 | Pressure (   99%):    0.001623 | Friction (    0%):    0.000000 | Momentum (    0%):    0.000000
Total CFz   (    5%):    0.003352 | Pressure (   99%):    0.003352 | Friction (    0%):    0.000000 | Momentum (    0%):    0.000000

Surface name: plain_flap_Wing1_Seg2

Total CL    (   13%):    0.008792 | Pressure (   99%):    0.008792 | Friction (    0%):    0.000000 | Momentum (    0%):    0.000000
Total CD    (    0%):    0.000437 | Pressure (   99%):    0.000437 | Friction (    0%):    0.000000 | Momentum (    0%):    0.000000
Total CSF   (  -16%):   -0.000717 | Pressure (  100%):   -0.000717 | Friction (    0%):    0.000000 | Momentum (    0%):    0.000000
Total CL/CD (-1970%):   20.133996 | Pressure (  100%):   20.133996 | Friction (    0%):    0.000000 | Momentum (    0%):    0.000000
Total CMx   (-10617%):    0.008079 | Pressure (   99%):    0.008079 | Friction (    0%):    0.000000 | Momentum (    0%):    0.000000
Total CMy   (   17%):   -0.038028 | Pressure (  100%):   -0.038028 | Friction (    0%):    0.000000 | Momentum (    0%):    0.000000
Total CMz   (  -10%):   -0.003410 | Pressure (  100%):   -0.003410 | Friction (    0%):    0.000000 | Momentum (    0%):    0.000000
Total CFx   (    0%):    0.000437 | Pressure (   99%):    0.000437 | Friction (    0%):    0.000000 | Momentum (    0%):    0.000000
Total CFy   (  -16%):   -0.000717 | Pressure (  100%):   -0.000717 | Friction (    0%):    0.000000 | Momentum (    0%):    0.000000
Total CFz   (   13%):    0.008792 | Pressure (   99%):    0.008792 | Friction (    0%):    0.000000 | Momentum (    0%):    0.000000

Surface name: plain_flap_Wing1_Seg2_mirrored

Total CL    (   11%):    0.007236 | Pressure (   99%):    0.007236 | Friction (    0%):    0.000000 | Momentum (    0%):    0.000000
Total CD    (   -1%):    0.000895 | Pressure (   99%):    0.000895 | Friction (    0%):    0.000000 | Momentum (    0%):    0.000000
Total CSF   (   14%):    0.000624 | Pressure (   99%):    0.000624 | Friction (    0%):    0.000000 | Momentum (    0%):    0.000000
Total CL/CD ( -791%):    8.089187 | Pressure (  100%):    8.089187 | Friction (    0%):    0.000000 | Momentum (    0%):    0.000000
Total CMx   ( 9151%):   -0.006964 | Pressure (  100%):   -0.006964 | Friction (    0%):    0.000000 | Momentum (    0%):    0.000000
Total CMy   (   14%):   -0.031454 | Pressure (  100%):   -0.031454 | Friction (    0%):    0.000000 | Momentum (    0%):    0.000000
Total CMz   (   11%):    0.003489 | Pressure (   99%):    0.003489 | Friction (    0%):    0.000000 | Momentum (    0%):    0.000000
Total CFx   (   -1%):    0.000895 | Pressure (   99%):    0.000895 | Friction (    0%):    0.000000 | Momentum (    0%):    0.000000
Total CFy   (   14%):    0.000624 | Pressure (   99%):    0.000624 | Friction (    0%):    0.000000 | Momentum (    0%):    0.000000
Total CFz   (   11%):    0.007236 | Pressure (   99%):    0.007236 | Friction (    0%):    0.000000 | Momentum (    0%):    0.000000

Surface name: plain_rudder_Wing3V_Seg1

Total CL    (   -1%):   -0.001176 | Pressure (  100%):   -0.001176 | Friction (    0%):    0.000000 | Momentum (    0%):    0.000000
Total CD    (   -3%):    0.002431 | Pressure (   99%):    0.002431 | Friction (    0%):    0.000000 | Momentum (    0%):    0.000000
Total CSF   (   53%):    0.002247 | Pressure (   99%):    0.002247 | Friction (    0%):    0.000000 | Momentum (    0%):    0.000000
Total CL/CD (   47%):   -0.483921 | Pressure (  100%):   -0.483921 | Friction (    0%):    0.000000 | Momentum (    0%):    0.000000
Total CMx   ( 3047%):   -0.002319 | Pressure (  100%):   -0.002319 | Friction (    0%):    0.000000 | Momentum (    0%):    0.000000
Total CMy   (   -5%):    0.011896 | Pressure (   99%):    0.011896 | Friction (    0%):    0.000000 | Momentum (    0%):    0.000000
Total CMz   (   61%):    0.019152 | Pressure (   99%):    0.019152 | Friction (    0%):    0.000000 | Momentum (    0%):    0.000000
Total CFx   (   -3%):    0.002431 | Pressure (   99%):    0.002431 | Friction (    0%):    0.000000 | Momentum (    0%):    0.000000
Total CFy   (   53%):    0.002247 | Pressure (   99%):    0.002247 | Friction (    0%):    0.000000 | Momentum (    0%):    0.000000
Total CFz   (   -1%):   -0.001176 | Pressure (  100%):   -0.001176 | Friction (    0%):    0.000000 | Momentum (    0%):    0.000000

Surface name: right_plain_aileron_Wing1_Seg3

Total CL    (    3%):    0.002557 | Pressure (   99%):    0.002557 | Friction (    0%):    0.000000 | Momentum (    0%):    0.000000
Total CD    (   -5%):    0.003779 | Pressure (   99%):    0.003779 | Friction (    0%):    0.000000 | Momentum (    0%):    0.000000
Total CSF   (  -36%):   -0.001547 | Pressure (  100%):   -0.001547 | Friction (    0%):    0.000000 | Momentum (    0%):    0.000000
Total CL/CD (  -66%):    0.676725 | Pressure (   99%):    0.676725 | Friction (    0%):    0.000000 | Momentum (    0%):    0.000000
Total CMx   (-7152%):    0.005443 | Pressure (   99%):    0.005443 | Friction (    0%):    0.000000 | Momentum (    0%):    0.000000
Total CMy   (    5%):   -0.012303 | Pressure (  100%):   -0.012303 | Friction (    0%):    0.000000 | Momentum (    0%):    0.000000
Total CMz   (  -50%):   -0.015810 | Pressure (  100%):   -0.015810 | Friction (    0%):    0.000000 | Momentum (    0%):    0.000000
Total CFx   (   -5%):    0.003779 | Pressure (   99%):    0.003779 | Friction (    0%):    0.000000 | Momentum (    0%):    0.000000
Total CFy   (  -36%):   -0.001547 | Pressure (  100%):   -0.001547 | Friction (    0%):    0.000000 | Momentum (    0%):    0.000000
Total CFz   (    3%):    0.002557 | Pressure (   99%):    0.002557 | Friction (    0%):    0.000000 | Momentum (    0%):    0.000000

