
-------------------------------------------------------------------------
|    ___ _   _ ___                                                      |
|   / __| | | |_  )   Release 8.1.0 "Harrier"                           |
|   \__ \ |_| |/ /                                                      |
|   |___/\___//___|   Suite (Computational Fluid Dynamics Code)         |
|                                                                       |
-------------------------------------------------------------------------
| SU2 Project Website: https://su2code.github.io                        |
|                                                                       |
| The SU2 Project is maintained by the SU2 Foundation                   |
| (http://su2foundation.org)                                            |
-------------------------------------------------------------------------
| Copyright 2012-2024, SU2 Contributors                                 |
|                                                                       |
| SU2 is free software; you can redistribute it and/or                  |
| modify it under the terms of the GNU Lesser General Public            |
| License as published by the Free Software Foundation; either          |
| version 2.1 of the License, or (at your option) any later version.    |
|                                                                       |
| SU2 is distributed in the hope that it will be useful,                |
| but WITHOUT ANY WARRANTY; without even the implied warranty of        |
| MERCHANTABILITY or FITNESS FOR A PARTICULAR PURPOSE. See the GNU      |
| Lesser General Public License for more details.                       |
|                                                                       |
| You should have received a copy of the GNU Lesser General Public      |
| License along with SU2. If not, see <http://www.gnu.org/licenses/>.   |
-------------------------------------------------------------------------


Problem definition:

Compressible Euler equations.
Mach number: 0.3.
Angle of attack (AoA): 0 deg, and angle of sideslip (AoS): 0 deg.
Non-Dimensional simulation (V=1.0, Rho=1.0, T=1.0 at the farfield).
The reference area is 122.4 m^2.
The reference length is 4.193 m.


Problem definition:

Inviscid flow: Computing density based on free-stream
temperature and pressure using the ideal gas law.
Force coefficients computed using MACH_MOTION.
-- Input conditions:
Fluid Model: STANDARD_AIR 
Specific gas constant: 287.058 N.m/kg.K.
Specific gas constant (non-dim): 7.93651
Specific Heat Ratio: 1.4000 
Free-stream static pressure: 101325 Pa.
Free-stream total pressure: 107853 Pa.
Free-stream temperature: 288.15 K.
Free-stream total temperature: 293.337 K.
Free-stream density: 1.22498 kg/m^3.
Free-stream velocity: (102.089, 0, 0) m/s. Magnitude: 102.089 m/s.
Free-stream total energy per unit mass: 212000 m^2/s^2.
Total time: 0 s. Time step: 3.61103 s.
-- Reference values:
Reference specific gas constant: 36.1693 N.m/kg.K.
Reference pressure: 12767 Pa.
Reference temperature: 288.15 K.
Reference density: 1.22498 kg/m^3.
Reference velocity: 102.089 m/s.
Reference energy per unit mass: 10422.2 m^2/s^2.
Reference time: 0.00979536 s.
-- Resulting non-dimensional state:
Mach number (non-dim): 0.3
Specific gas constant (non-dim): 7.93651
Free-stream temperature (non-dim): 1
Free-stream pressure (non-dim): 7.93651
Free-stream density (non-dim): 1
Free-stream velocity (non-dim): (1, 0, 0). Magnitude: 1
Free-stream total energy per unit mass (non-dim): 20.3413
Total time (non-dim): 0
Time step (non-dim): 368.646


Forces breakdown:

Center of Pressure: X=-2.046253Z+9.429166 m.

NOTE: Multiply forces by the non-dimensional factor: 61.200000, and the reference factor: 12766.950000
to obtain the dimensional force.

Total CL:       0.030952 | Pressure (   99%):    0.030952 | Friction (    0%):    0.000000 | Momentum (    0%):    0.000000
Total CD:      -0.063335 | Pressure (  100%):   -0.063335 | Friction (    0%):    0.000000 | Momentum (    0%):    0.000000
Total CSF:      0.004019 | Pressure (   99%):    0.004019 | Friction (    0%):    0.000000 | Momentum (    0%):    0.000000
Total CL/CD:   -0.488698 | Pressure (  100%):   -0.488698 | Friction (    0%):    0.000000 | Momentum (    0%):    0.000000
Total CMx:      0.000016 | Pressure (   99%):    0.000016 | Friction (    0%):    0.000000 | Momentum (    0%):    0.000000
Total CMy:     -0.069604 | Pressure (  100%):   -0.069604 | Friction (    0%):    0.000000 | Momentum (    0%):    0.000000
Total CMz:      0.029660 | Pressure (   99%):    0.029660 | Friction (    0%):    0.000000 | Momentum (    0%):    0.000000
Total CFx:     -0.063335 | Pressure (  100%):   -0.063335 | Friction (    0%):    0.000000 | Momentum (    0%):    0.000000
Total CFy:      0.004019 | Pressure (   99%):    0.004019 | Friction (    0%):    0.000000 | Momentum (    0%):    0.000000
Total CFz:      0.030952 | Pressure (   99%):    0.030952 | Friction (    0%):    0.000000 | Momentum (    0%):    0.000000


Surface name: Fuselage1

Total CL    (   52%):    0.016287 | Pressure (   99%):    0.016287 | Friction (    0%):    0.000000 | Momentum (    0%):    0.000000
Total CD    (   21%):   -0.013809 | Pressure (  100%):   -0.013809 | Friction (    0%):    0.000000 | Momentum (    0%):    0.000000
Total CSF   (   44%):    0.001804 | Pressure (   99%):    0.001804 | Friction (    0%):    0.000000 | Momentum (    0%):    0.000000
Total CL/CD (  241%):   -1.179442 | Pressure (  100%):   -1.179442 | Friction (    0%):    0.000000 | Momentum (    0%):    0.000000
Total CMx   (-1366%):   -0.000221 | Pressure (  100%):   -0.000221 | Friction (    0%):    0.000000 | Momentum (    0%):    0.000000
Total CMy   (  134%):   -0.093860 | Pressure (  100%):   -0.093860 | Friction (    0%):    0.000000 | Momentum (    0%):    0.000000
Total CMz   (   39%):    0.011644 | Pressure (   99%):    0.011644 | Friction (    0%):    0.000000 | Momentum (    0%):    0.000000
Total CFx   (   21%):   -0.013809 | Pressure (  100%):   -0.013809 | Friction (    0%):    0.000000 | Momentum (    0%):    0.000000
Total CFy   (   44%):    0.001804 | Pressure (   99%):    0.001804 | Friction (    0%):    0.000000 | Momentum (    0%):    0.000000
Total CFz   (   52%):    0.016287 | Pressure (   99%):    0.016287 | Friction (    0%):    0.000000 | Momentum (    0%):    0.000000

Surface name: Wing1_Seg1

Total CL    (  -10%):   -0.003220 | Pressure (  100%):   -0.003220 | Friction (    0%):    0.000000 | Momentum (    0%):    0.000000
Total CD    (    0%):   -0.000009 | Pressure (  100%):   -0.000009 | Friction (    0%):    0.000000 | Momentum (    0%):    0.000000
Total CSF   (   -4%):   -0.000199 | Pressure (  100%):   -0.000199 | Friction (    0%):    0.000000 | Momentum (    0%):    0.000000
Total CL/CD (-69970%):  341.945574 | Pressure (   99%):  341.945574 | Friction (    0%):    0.000000 | Momentum (    0%):    0.000000
Total CMx   (-7677%):   -0.001240 | Pressure (  100%):   -0.001240 | Friction (    0%):    0.000000 | Momentum (    0%):    0.000000
Total CMy   (  -15%):    0.010680 | Pressure (   99%):    0.010680 | Friction (    0%):    0.000000 | Momentum (    0%):    0.000000
Total CMz   (   -2%):   -0.000861 | Pressure (  100%):   -0.000861 | Friction (    0%):    0.000000 | Momentum (    0%):    0.000000
Total CFx   (    0%):   -0.000009 | Pressure (  100%):   -0.000009 | Friction (    0%):    0.000000 | Momentum (    0%):    0.000000
Total CFy   (   -4%):   -0.000199 | Pressure (  100%):   -0.000199 | Friction (    0%):    0.000000 | Momentum (    0%):    0.000000
Total CFz   (  -10%):   -0.003220 | Pressure (  100%):   -0.003220 | Friction (    0%):    0.000000 | Momentum (    0%):    0.000000

Surface name: Wing1_Seg1_mirrored

Total CL    (  -10%):   -0.003142 | Pressure (  100%):   -0.003142 | Friction (    0%):    0.000000 | Momentum (    0%):    0.000000
Total CD    (    0%):   -0.000019 | Pressure (  100%):   -0.000019 | Friction (    0%):    0.000000 | Momentum (    0%):    0.000000
Total CSF   (    5%):    0.000202 | Pressure (   99%):    0.000202 | Friction (    0%):    0.000000 | Momentum (    0%):    0.000000
Total CL/CD (-33922%):  165.778306 | Pressure (  100%):  165.778306 | Friction (    0%):    0.000000 | Momentum (    0%):    0.000000
Total CMx   ( 7509%):    0.001212 | Pressure (   99%):    0.001212 | Friction (    0%):    0.000000 | Momentum (    0%):    0.000000
Total CMy   (  -14%):    0.010388 | Pressure (   99%):    0.010388 | Friction (    0%):    0.000000 | Momentum (    0%):    0.000000
Total CMz   (    2%):    0.000877 | Pressure (   99%):    0.000877 | Friction (    0%):    0.000000 | Momentum (    0%):    0.000000
Total CFx   (    0%):   -0.000019 | Pressure (  100%):   -0.000019 | Friction (    0%):    0.000000 | Momentum (    0%):    0.000000
Total CFy   (    5%):    0.000202 | Pressure (   99%):    0.000202 | Friction (    0%):    0.000000 | Momentum (    0%):    0.000000
Total CFz   (  -10%):   -0.003142 | Pressure (  100%):   -0.003142 | Friction (    0%):    0.000000 | Momentum (    0%):    0.000000

Surface name: Wing1_Seg2

Total CL    (   14%):    0.004522 | Pressure (   99%):    0.004522 | Friction (    0%):    0.000000 | Momentum (    0%):    0.000000
Total CD    (   16%):   -0.010648 | Pressure (  100%):   -0.010648 | Friction (    0%):    0.000000 | Momentum (    0%):    0.000000
Total CSF   (  130%):    0.005237 | Pressure (   99%):    0.005237 | Friction (    0%):    0.000000 | Momentum (    0%):    0.000000
Total CL/CD (   86%):   -0.424721 | Pressure (  100%):   -0.424721 | Friction (    0%):    0.000000 | Momentum (    0%):    0.000000
Total CMx   (32428%):    0.005236 | Pressure (   99%):    0.005236 | Friction (    0%):    0.000000 | Momentum (    0%):    0.000000
Total CMy   (   14%):   -0.010087 | Pressure (  100%):   -0.010087 | Friction (    0%):    0.000000 | Momentum (    0%):    0.000000
Total CMz   (  101%):    0.030077 | Pressure (   99%):    0.030077 | Friction (    0%):    0.000000 | Momentum (    0%):    0.000000
Total CFx   (   16%):   -0.010648 | Pressure (  100%):   -0.010648 | Friction (    0%):    0.000000 | Momentum (    0%):    0.000000
Total CFy   (  130%):    0.005237 | Pressure (   99%):    0.005237 | Friction (    0%):    0.000000 | Momentum (    0%):    0.000000
Total CFz   (   14%):    0.004522 | Pressure (   99%):    0.004522 | Friction (    0%):    0.000000 | Momentum (    0%):    0.000000

Surface name: Wing1_Seg2_mirrored

Total CL    (   16%):    0.004971 | Pressure (   99%):    0.004971 | Friction (    0%):    0.000000 | Momentum (    0%):    0.000000
Total CD    (   16%):   -0.010587 | Pressure (  100%):   -0.010587 | Friction (    0%):    0.000000 | Momentum (    0%):    0.000000
Total CSF   ( -127%):   -0.005126 | Pressure (  100%):   -0.005126 | Friction (    0%):    0.000000 | Momentum (    0%):    0.000000
Total CL/CD (   96%):   -0.469529 | Pressure (  100%):   -0.469529 | Friction (    0%):    0.000000 | Momentum (    0%):    0.000000
Total CMx   (-35981%):   -0.005809 | Pressure (  100%):   -0.005809 | Friction (    0%):    0.000000 | Momentum (    0%):    0.000000
Total CMy   (   17%):   -0.012021 | Pressure (  100%):   -0.012021 | Friction (    0%):    0.000000 | Momentum (    0%):    0.000000
Total CMz   (  -99%):   -0.029595 | Pressure (  100%):   -0.029595 | Friction (    0%):    0.000000 | Momentum (    0%):    0.000000
Total CFx   (   16%):   -0.010587 | Pressure (  100%):   -0.010587 | Friction (    0%):    0.000000 | Momentum (    0%):    0.000000
Total CFy   ( -127%):   -0.005126 | Pressure (  100%):   -0.005126 | Friction (    0%):    0.000000 | Momentum (    0%):    0.000000
Total CFz   (   16%):    0.004971 | Pressure (   99%):    0.004971 | Friction (    0%):    0.000000 | Momentum (    0%):    0.000000

Surface name: Wing1_Seg3

Total CL    (   21%):    0.006555 | Pressure (   99%):    0.006555 | Friction (    0%):    0.000000 | Momentum (    0%):    0.000000
Total CD    (   19%):   -0.012086 | Pressure (  100%):   -0.012086 | Friction (    0%):    0.000000 | Momentum (    0%):    0.000000
Total CSF   (  139%):    0.005612 | Pressure (   99%):    0.005612 | Friction (    0%):    0.000000 | Momentum (    0%):    0.000000
Total CL/CD (  110%):   -0.542375 | Pressure (  100%):   -0.542375 | Friction (    0%):    0.000000 | Momentum (    0%):    0.000000
Total CMx   (111932%):    0.018072 | Pressure (   99%):    0.018072 | Friction (    0%):    0.000000 | Momentum (    0%):    0.000000
Total CMy   (   36%):   -0.025293 | Pressure (  100%):   -0.025293 | Friction (    0%):    0.000000 | Momentum (    0%):    0.000000
Total CMz   (  193%):    0.057289 | Pressure (   99%):    0.057289 | Friction (    0%):    0.000000 | Momentum (    0%):    0.000000
Total CFx   (   19%):   -0.012086 | Pressure (  100%):   -0.012086 | Friction (    0%):    0.000000 | Momentum (    0%):    0.000000
Total CFy   (  139%):    0.005612 | Pressure (   99%):    0.005612 | Friction (    0%):    0.000000 | Momentum (    0%):    0.000000
Total CFz   (   21%):    0.006555 | Pressure (   99%):    0.006555 | Friction (    0%):    0.000000 | Momentum (    0%):    0.000000

Surface name: Wing1_Seg3_mirrored

Total CL    (   17%):    0.005547 | Pressure (   99%):    0.005547 | Friction (    0%):    0.000000 | Momentum (    0%):    0.000000
Total CD    (   19%):   -0.012333 | Pressure (  100%):   -0.012333 | Friction (    0%):    0.000000 | Momentum (    0%):    0.000000
Total CSF   ( -143%):   -0.005765 | Pressure (  100%):   -0.005765 | Friction (    0%):    0.000000 | Momentum (    0%):    0.000000
Total CL/CD (   92%):   -0.449794 | Pressure (  100%):   -0.449794 | Friction (    0%):    0.000000 | Momentum (    0%):    0.000000
Total CMx   (-95185%):   -0.015368 | Pressure (  100%):   -0.015368 | Friction (    0%):    0.000000 | Momentum (    0%):    0.000000
Total CMy   (   29%):   -0.020648 | Pressure (  100%):   -0.020648 | Friction (    0%):    0.000000 | Momentum (    0%):    0.000000
Total CMz   ( -197%):   -0.058568 | Pressure (  100%):   -0.058568 | Friction (    0%):    0.000000 | Momentum (    0%):    0.000000
Total CFx   (   19%):   -0.012333 | Pressure (  100%):   -0.012333 | Friction (    0%):    0.000000 | Momentum (    0%):    0.000000
Total CFy   ( -143%):   -0.005765 | Pressure (  100%):   -0.005765 | Friction (    0%):    0.000000 | Momentum (    0%):    0.000000
Total CFz   (   17%):    0.005547 | Pressure (   99%):    0.005547 | Friction (    0%):    0.000000 | Momentum (    0%):    0.000000

Surface name: Wing2H_Seg1

Total CL    (  -40%):   -0.012458 | Pressure (  100%):   -0.012458 | Friction (    0%):    0.000000 | Momentum (    0%):    0.000000
Total CD    (    6%):   -0.003847 | Pressure (  100%):   -0.003847 | Friction (    0%):    0.000000 | Momentum (    0%):    0.000000
Total CSF   (   90%):    0.003641 | Pressure (   99%):    0.003641 | Friction (    0%):    0.000000 | Momentum (    0%):    0.000000
Total CL/CD ( -662%):    3.238488 | Pressure (  100%):    3.238488 | Friction (    0%):    0.000000 | Momentum (    0%):    0.000000
Total CMx   (-64530%):   -0.010419 | Pressure (  100%):   -0.010419 | Friction (    0%):    0.000000 | Momentum (    0%):    0.000000
Total CMy   ( -143%):    0.099764 | Pressure (   99%):    0.099764 | Friction (    0%):    0.000000 | Momentum (    0%):    0.000000
Total CMz   (  110%):    0.032815 | Pressure (   99%):    0.032815 | Friction (    0%):    0.000000 | Momentum (    0%):    0.000000
Total CFx   (    6%):   -0.003847 | Pressure (  100%):   -0.003847 | Friction (    0%):    0.000000 | Momentum (    0%):    0.000000
Total CFy   (   90%):    0.003641 | Pressure (   99%):    0.003641 | Friction (    0%):    0.000000 | Momentum (    0%):    0.000000
Total CFz   (  -40%):   -0.012458 | Pressure (  100%):   -0.012458 | Friction (    0%):    0.000000 | Momentum (    0%):    0.000000

Surface name: Wing2H_Seg1_mirrored

Total CL    (  -43%):   -0.013485 | Pressure (  100%):   -0.013485 | Friction (    0%):    0.000000 | Momentum (    0%):    0.000000
Total CD    (    5%):   -0.003725 | Pressure (  100%):   -0.003725 | Friction (    0%):    0.000000 | Momentum (    0%):    0.000000
Total CSF   (  -90%):   -0.003627 | Pressure (  100%):   -0.003627 | Friction (    0%):    0.000000 | Momentum (    0%):    0.000000
Total CL/CD ( -740%):    3.619650 | Pressure (  100%):    3.619650 | Friction (    0%):    0.000000 | Momentum (    0%):    0.000000
Total CMx   (69792%):    0.011268 | Pressure (   99%):    0.011268 | Friction (    0%):    0.000000 | Momentum (    0%):    0.000000
Total CMy   ( -155%):    0.108454 | Pressure (   99%):    0.108454 | Friction (    0%):    0.000000 | Momentum (    0%):    0.000000
Total CMz   ( -109%):   -0.032578 | Pressure (  100%):   -0.032578 | Friction (    0%):    0.000000 | Momentum (    0%):    0.000000
Total CFx   (    5%):   -0.003725 | Pressure (  100%):   -0.003725 | Friction (    0%):    0.000000 | Momentum (    0%):    0.000000
Total CFy   (  -90%):   -0.003627 | Pressure (  100%):   -0.003627 | Friction (    0%):    0.000000 | Momentum (    0%):    0.000000
Total CFz   (  -43%):   -0.013485 | Pressure (  100%):   -0.013485 | Friction (    0%):    0.000000 | Momentum (    0%):    0.000000

Surface name: Wing3V_Seg1

Total CL    (    9%):    0.002962 | Pressure (   99%):    0.002962 | Friction (    0%):    0.000000 | Momentum (    0%):    0.000000
Total CD    (    5%):   -0.003245 | Pressure (  100%):   -0.003245 | Friction (    0%):    0.000000 | Momentum (    0%):    0.000000
Total CSF   ( -469%):   -0.018862 | Pressure (  100%):   -0.018862 | Friction (    0%):    0.000000 | Momentum (    0%):    0.000000
Total CL/CD (  186%):   -0.912808 | Pressure (  100%):   -0.912808 | Friction (    0%):    0.000000 | Momentum (    0%):    0.000000
Total CMx   (119521%):    0.019297 | Pressure (   99%):    0.019297 | Friction (    0%):    0.000000 | Momentum (    0%):    0.000000
Total CMy   (   38%):   -0.026881 | Pressure (  100%):   -0.026881 | Friction (    0%):    0.000000 | Momentum (    0%):    0.000000
Total CMz   ( -495%):   -0.147028 | Pressure (  100%):   -0.147028 | Friction (    0%):    0.000000 | Momentum (    0%):    0.000000
Total CFx   (    5%):   -0.003245 | Pressure (  100%):   -0.003245 | Friction (    0%):    0.000000 | Momentum (    0%):    0.000000
Total CFy   ( -469%):   -0.018862 | Pressure (  100%):   -0.018862 | Friction (    0%):    0.000000 | Momentum (    0%):    0.000000
Total CFz   (    9%):    0.002962 | Pressure (   99%):    0.002962 | Friction (    0%):    0.000000 | Momentum (    0%):    0.000000

Surface name: Wing3V_Seg1_mirrored

Total CL    (   11%):    0.003686 | Pressure (   99%):    0.003686 | Friction (    0%):    0.000000 | Momentum (    0%):    0.000000
Total CD    (    6%):   -0.004179 | Pressure (  100%):   -0.004179 | Friction (    0%):    0.000000 | Momentum (    0%):    0.000000
Total CSF   (  470%):    0.018894 | Pressure (   99%):    0.018894 | Friction (    0%):    0.000000 | Momentum (    0%):    0.000000
Total CL/CD (  180%):   -0.882052 | Pressure (  100%):   -0.882052 | Friction (    0%):    0.000000 | Momentum (    0%):    0.000000
Total CMx   (-118223%):   -0.019088 | Pressure (  100%):   -0.019088 | Friction (    0%):    0.000000 | Momentum (    0%):    0.000000
Total CMy   (   48%):   -0.033909 | Pressure (  100%):   -0.033909 | Friction (    0%):    0.000000 | Momentum (    0%):    0.000000
Total CMz   (  493%):    0.146488 | Pressure (   99%):    0.146488 | Friction (    0%):    0.000000 | Momentum (    0%):    0.000000
Total CFx   (    6%):   -0.004179 | Pressure (  100%):   -0.004179 | Friction (    0%):    0.000000 | Momentum (    0%):    0.000000
Total CFy   (  470%):    0.018894 | Pressure (   99%):    0.018894 | Friction (    0%):    0.000000 | Momentum (    0%):    0.000000
Total CFz   (   11%):    0.003686 | Pressure (   99%):    0.003686 | Friction (    0%):    0.000000 | Momentum (    0%):    0.000000

Surface name: left_plain_aileron_Wing1_Seg3

Total CL    (    8%):    0.002721 | Pressure (   99%):    0.002721 | Friction (    0%):    0.000000 | Momentum (    0%):    0.000000
Total CD    (   -5%):    0.003624 | Pressure (   99%):    0.003624 | Friction (    0%):    0.000000 | Momentum (    0%):    0.000000
Total CSF   (   39%):    0.001572 | Pressure (   99%):    0.001572 | Friction (    0%):    0.000000 | Momentum (    0%):    0.000000
Total CL/CD ( -153%):    0.750742 | Pressure (   99%):    0.750742 | Friction (    0%):    0.000000 | Momentum (    0%):    0.000000
Total CMx   (-33559%):   -0.005418 | Pressure (  100%):   -0.005418 | Friction (    0%):    0.000000 | Momentum (    0%):    0.000000
Total CMy   (   18%):   -0.012826 | Pressure (  100%):   -0.012826 | Friction (    0%):    0.000000 | Momentum (    0%):    0.000000
Total CMz   (   52%):    0.015611 | Pressure (   99%):    0.015611 | Friction (    0%):    0.000000 | Momentum (    0%):    0.000000
Total CFx   (   -5%):    0.003624 | Pressure (   99%):    0.003624 | Friction (    0%):    0.000000 | Momentum (    0%):    0.000000
Total CFy   (   39%):    0.001572 | Pressure (   99%):    0.001572 | Friction (    0%):    0.000000 | Momentum (    0%):    0.000000
Total CFz   (    8%):    0.002721 | Pressure (   99%):    0.002721 | Friction (    0%):    0.000000 | Momentum (    0%):    0.000000

Surface name: plain_flap_Wing1_Seg2

Total CL    (   27%):    0.008415 | Pressure (   99%):    0.008415 | Friction (    0%):    0.000000 | Momentum (    0%):    0.000000
Total CD    (    0%):    0.000408 | Pressure (   99%):    0.000408 | Friction (    0%):    0.000000 | Momentum (    0%):    0.000000
Total CSF   (  -17%):   -0.000686 | Pressure (  100%):   -0.000686 | Friction (    0%):    0.000000 | Momentum (    0%):    0.000000
Total CL/CD (-4221%):   20.630019 | Pressure (  100%):   20.630019 | Friction (    0%):    0.000000 | Momentum (    0%):    0.000000
Total CMx   (47815%):    0.007720 | Pressure (   99%):    0.007720 | Friction (    0%):    0.000000 | Momentum (    0%):    0.000000
Total CMy   (   52%):   -0.036392 | Pressure (  100%):   -0.036392 | Friction (    0%):    0.000000 | Momentum (    0%):    0.000000
Total CMz   (  -10%):   -0.003253 | Pressure (  100%):   -0.003253 | Friction (    0%):    0.000000 | Momentum (    0%):    0.000000
Total CFx   (    0%):    0.000408 | Pressure (   99%):    0.000408 | Friction (    0%):    0.000000 | Momentum (    0%):    0.000000
Total CFy   (  -17%):   -0.000686 | Pressure (  100%):   -0.000686 | Friction (    0%):    0.000000 | Momentum (    0%):    0.000000
Total CFz   (   27%):    0.008415 | Pressure (   99%):    0.008415 | Friction (    0%):    0.000000 | Momentum (    0%):    0.000000

Surface name: plain_flap_Wing1_Seg2_mirrored

Total CL    (   22%):    0.006849 | Pressure (   99%):    0.006849 | Friction (    0%):    0.000000 | Momentum (    0%):    0.000000
Total CD    (   -1%):    0.000872 | Pressure (   99%):    0.000872 | Friction (    0%):    0.000000 | Momentum (    0%):    0.000000
Total CSF   (   14%):    0.000592 | Pressure (   99%):    0.000592 | Friction (    0%):    0.000000 | Momentum (    0%):    0.000000
Total CL/CD (-1607%):    7.856070 | Pressure (  100%):    7.856070 | Friction (    0%):    0.000000 | Momentum (    0%):    0.000000
Total CMx   (-40846%):   -0.006595 | Pressure (  100%):   -0.006595 | Friction (    0%):    0.000000 | Momentum (    0%):    0.000000
Total CMy   (   42%):   -0.029778 | Pressure (  100%):   -0.029778 | Friction (    0%):    0.000000 | Momentum (    0%):    0.000000
Total CMz   (   11%):    0.003334 | Pressure (   99%):    0.003334 | Friction (    0%):    0.000000 | Momentum (    0%):    0.000000
Total CFx   (   -1%):    0.000872 | Pressure (   99%):    0.000872 | Friction (    0%):    0.000000 | Momentum (    0%):    0.000000
Total CFy   (   14%):    0.000592 | Pressure (   99%):    0.000592 | Friction (    0%):    0.000000 | Momentum (    0%):    0.000000
Total CFz   (   22%):    0.006849 | Pressure (   99%):    0.006849 | Friction (    0%):    0.000000 | Momentum (    0%):    0.000000

Surface name: plain_rudder_Wing3V_Seg1

Total CL    (   -3%):   -0.001174 | Pressure (  100%):   -0.001174 | Friction (    0%):    0.000000 | Momentum (    0%):    0.000000
Total CD    (   -3%):    0.002478 | Pressure (   99%):    0.002478 | Friction (    0%):    0.000000 | Momentum (    0%):    0.000000
Total CSF   (   55%):    0.002225 | Pressure (   99%):    0.002225 | Friction (    0%):    0.000000 | Momentum (    0%):    0.000000
Total CL/CD (   96%):   -0.474010 | Pressure (  100%):   -0.474010 | Friction (    0%):    0.000000 | Momentum (    0%):    0.000000
Total CMx   (-14713%):   -0.002376 | Pressure (  100%):   -0.002376 | Friction (    0%):    0.000000 | Momentum (    0%):    0.000000
Total CMy   (  -17%):    0.012017 | Pressure (   99%):    0.012017 | Friction (    0%):    0.000000 | Momentum (    0%):    0.000000
Total CMz   (   63%):    0.018950 | Pressure (   99%):    0.018950 | Friction (    0%):    0.000000 | Momentum (    0%):    0.000000
Total CFx   (   -3%):    0.002478 | Pressure (   99%):    0.002478 | Friction (    0%):    0.000000 | Momentum (    0%):    0.000000
Total CFy   (   55%):    0.002225 | Pressure (   99%):    0.002225 | Friction (    0%):    0.000000 | Momentum (    0%):    0.000000
Total CFz   (   -3%):   -0.001174 | Pressure (  100%):   -0.001174 | Friction (    0%):    0.000000 | Momentum (    0%):    0.000000

Surface name: right_plain_aileron_Wing1_Seg3

Total CL    (    6%):    0.001916 | Pressure (   99%):    0.001916 | Friction (    0%):    0.000000 | Momentum (    0%):    0.000000
Total CD    (   -5%):    0.003771 | Pressure (   99%):    0.003771 | Friction (    0%):    0.000000 | Momentum (    0%):    0.000000
Total CSF   (  -37%):   -0.001497 | Pressure (  100%):   -0.001497 | Friction (    0%):    0.000000 | Momentum (    0%):    0.000000
Total CL/CD ( -103%):    0.508089 | Pressure (   99%):    0.508089 | Friction (    0%):    0.000000 | Momentum (    0%):    0.000000
Total CMx   (23183%):    0.003743 | Pressure (   99%):    0.003743 | Friction (    0%):    0.000000 | Momentum (    0%):    0.000000
Total CMy   (   13%):   -0.009210 | Pressure (  100%):   -0.009210 | Friction (    0%):    0.000000 | Momentum (    0%):    0.000000
Total CMz   (  -52%):   -0.015541 | Pressure (  100%):   -0.015541 | Friction (    0%):    0.000000 | Momentum (    0%):    0.000000
Total CFx   (   -5%):    0.003771 | Pressure (   99%):    0.003771 | Friction (    0%):    0.000000 | Momentum (    0%):    0.000000
Total CFy   (  -37%):   -0.001497 | Pressure (  100%):   -0.001497 | Friction (    0%):    0.000000 | Momentum (    0%):    0.000000
Total CFz   (    6%):    0.001916 | Pressure (   99%):    0.001916 | Friction (    0%):    0.000000 | Momentum (    0%):    0.000000

