
-------------------------------------------------------------------------
|    ___ _   _ ___                                                      |
|   / __| | | |_  )   Release 8.1.0 "Harrier"                           |
|   \__ \ |_| |/ /                                                      |
|   |___/\___//___|   Suite (Computational Fluid Dynamics Code)         |
|                                                                       |
-------------------------------------------------------------------------
| SU2 Project Website: https://su2code.github.io                        |
|                                                                       |
| The SU2 Project is maintained by the SU2 Foundation                   |
| (http://su2foundation.org)                                            |
-------------------------------------------------------------------------
| Copyright 2012-2024, SU2 Contributors                                 |
|                                                                       |
| SU2 is free software; you can redistribute it and/or                  |
| modify it under the terms of the GNU Lesser General Public            |
| License as published by the Free Software Foundation; either          |
| version 2.1 of the License, or (at your option) any later version.    |
|                                                                       |
| SU2 is distributed in the hope that it will be useful,                |
| but WITHOUT ANY WARRANTY; without even the implied warranty of        |
| MERCHANTABILITY or FITNESS FOR A PARTICULAR PURPOSE. See the GNU      |
| Lesser General Public License for more details.                       |
|                                                                       |
| You should have received a copy of the GNU Lesser General Public      |
| License along with SU2. If not, see <http://www.gnu.org/licenses/>.   |
-------------------------------------------------------------------------


Problem definition:

Compressible Euler equations.
Mach number: 0.3.
Angle of attack (AoA): 0 deg, and angle of sideslip (AoS): 0 deg.
Non-Dimensional simulation (V=1.0, Rho=1.0, T=1.0 at the farfield).
The reference area is 122.4 m^2.
The reference length is 4.193 m.


Problem definition:

Inviscid flow: Computing density based on free-stream
temperature and pressure using the ideal gas law.
Force coefficients computed using MACH_MOTION.
-- Input conditions:
Fluid Model: STANDARD_AIR 
Specific gas constant: 287.058 N.m/kg.K.
Specific gas constant (non-dim): 7.93651
Specific Heat Ratio: 1.4000 
Free-stream static pressure: 101325 Pa.
Free-stream total pressure: 107853 Pa.
Free-stream temperature: 288.15 K.
Free-stream total temperature: 293.337 K.
Free-stream density: 1.22498 kg/m^3.
Free-stream velocity: (102.089, 0, 0) m/s. Magnitude: 102.089 m/s.
Free-stream total energy per unit mass: 212000 m^2/s^2.
Total time: 0 s. Time step: 3.61103 s.
-- Reference values:
Reference specific gas constant: 36.1693 N.m/kg.K.
Reference pressure: 12767 Pa.
Reference temperature: 288.15 K.
Reference density: 1.22498 kg/m^3.
Reference velocity: 102.089 m/s.
Reference energy per unit mass: 10422.2 m^2/s^2.
Reference time: 0.00979536 s.
-- Resulting non-dimensional state:
Mach number (non-dim): 0.3
Specific gas constant (non-dim): 7.93651
Free-stream temperature (non-dim): 1
Free-stream pressure (non-dim): 7.93651
Free-stream density (non-dim): 1
Free-stream velocity (non-dim): (1, 0, 0). Magnitude: 1
Free-stream total energy per unit mass (non-dim): 20.3413
Total time (non-dim): 0
Time step (non-dim): 368.646


Forces breakdown:

Center of Pressure: X=-0.526577Z+16.071137 m.

NOTE: Multiply forces by the non-dimensional factor: 61.200000, and the reference factor: 12766.950000
to obtain the dimensional force.

Total CL:       0.116804 | Pressure (   99%):    0.116804 | Friction (    0%):    0.000000 | Momentum (    0%):    0.000000
Total CD:      -0.061506 | Pressure (  100%):   -0.061506 | Friction (    0%):    0.000000 | Momentum (    0%):    0.000000
Total CSF:      0.004745 | Pressure (   99%):    0.004745 | Friction (    0%):    0.000000 | Momentum (    0%):    0.000000
Total CL/CD:   -1.899058 | Pressure (  100%):   -1.899058 | Friction (    0%):    0.000000 | Momentum (    0%):    0.000000
Total CMx:     -0.000541 | Pressure (  100%):   -0.000541 | Friction (    0%):    0.000000 | Momentum (    0%):    0.000000
Total CMy:     -0.447692 | Pressure (  100%):   -0.447692 | Friction (    0%):    0.000000 | Momentum (    0%):    0.000000
Total CMz:      0.035737 | Pressure (   99%):    0.035737 | Friction (    0%):    0.000000 | Momentum (    0%):    0.000000
Total CFx:     -0.061506 | Pressure (  100%):   -0.061506 | Friction (    0%):    0.000000 | Momentum (    0%):    0.000000
Total CFy:      0.004745 | Pressure (   99%):    0.004745 | Friction (    0%):    0.000000 | Momentum (    0%):    0.000000
Total CFz:      0.116804 | Pressure (   99%):    0.116804 | Friction (    0%):    0.000000 | Momentum (    0%):    0.000000


Surface name: Fuselage1

Total CL    (   21%):    0.025493 | Pressure (   99%):    0.025493 | Friction (    0%):    0.000000 | Momentum (    0%):    0.000000
Total CD    (   20%):   -0.012833 | Pressure (  100%):   -0.012833 | Friction (    0%):    0.000000 | Momentum (    0%):    0.000000
Total CSF   (   37%):    0.001796 | Pressure (   99%):    0.001796 | Friction (    0%):    0.000000 | Momentum (    0%):    0.000000
Total CL/CD (  104%):   -1.986529 | Pressure (  100%):   -1.986529 | Friction (    0%):    0.000000 | Momentum (    0%):    0.000000
Total CMx   (   27%):   -0.000146 | Pressure (  100%):   -0.000146 | Friction (    0%):    0.000000 | Momentum (    0%):    0.000000
Total CMy   (   27%):   -0.120952 | Pressure (  100%):   -0.120952 | Friction (    0%):    0.000000 | Momentum (    0%):    0.000000
Total CMz   (   33%):    0.011886 | Pressure (   99%):    0.011886 | Friction (    0%):    0.000000 | Momentum (    0%):    0.000000
Total CFx   (   20%):   -0.012833 | Pressure (  100%):   -0.012833 | Friction (    0%):    0.000000 | Momentum (    0%):    0.000000
Total CFy   (   37%):    0.001796 | Pressure (   99%):    0.001796 | Friction (    0%):    0.000000 | Momentum (    0%):    0.000000
Total CFz   (   21%):    0.025493 | Pressure (   99%):    0.025493 | Friction (    0%):    0.000000 | Momentum (    0%):    0.000000

Surface name: Wing1_Seg1

Total CL    (   -2%):   -0.002621 | Pressure (  100%):   -0.002621 | Friction (    0%):    0.000000 | Momentum (    0%):    0.000000
Total CD    (    0%):    0.000035 | Pressure (   99%):    0.000035 | Friction (    0%):    0.000000 | Momentum (    0%):    0.000000
Total CSF   (   -3%):   -0.000170 | Pressure (  100%):   -0.000170 | Friction (    0%):    0.000000 | Momentum (    0%):    0.000000
Total CL/CD ( 3899%):  -74.057939 | Pressure (  100%):  -74.057939 | Friction (    0%):    0.000000 | Momentum (    0%):    0.000000
Total CMx   (  185%):   -0.001002 | Pressure (  100%):   -0.001002 | Friction (    0%):    0.000000 | Momentum (    0%):    0.000000
Total CMy   (   -1%):    0.008571 | Pressure (   99%):    0.008571 | Friction (    0%):    0.000000 | Momentum (    0%):    0.000000
Total CMz   (   -2%):   -0.000762 | Pressure (  100%):   -0.000762 | Friction (    0%):    0.000000 | Momentum (    0%):    0.000000
Total CFx   (    0%):    0.000035 | Pressure (   99%):    0.000035 | Friction (    0%):    0.000000 | Momentum (    0%):    0.000000
Total CFy   (   -3%):   -0.000170 | Pressure (  100%):   -0.000170 | Friction (    0%):    0.000000 | Momentum (    0%):    0.000000
Total CFz   (   -2%):   -0.002621 | Pressure (  100%):   -0.002621 | Friction (    0%):    0.000000 | Momentum (    0%):    0.000000

Surface name: Wing1_Seg1_mirrored

Total CL    (   -2%):   -0.002546 | Pressure (  100%):   -0.002546 | Friction (    0%):    0.000000 | Momentum (    0%):    0.000000
Total CD    (    0%):    0.000026 | Pressure (   99%):    0.000026 | Friction (    0%):    0.000000 | Momentum (    0%):    0.000000
Total CSF   (    3%):    0.000176 | Pressure (   99%):    0.000176 | Friction (    0%):    0.000000 | Momentum (    0%):    0.000000
Total CL/CD ( 5225%):  -99.225884 | Pressure (  100%):  -99.225884 | Friction (    0%):    0.000000 | Momentum (    0%):    0.000000
Total CMx   ( -180%):    0.000977 | Pressure (   99%):    0.000977 | Friction (    0%):    0.000000 | Momentum (    0%):    0.000000
Total CMy   (   -1%):    0.008290 | Pressure (   99%):    0.008290 | Friction (    0%):    0.000000 | Momentum (    0%):    0.000000
Total CMz   (    2%):    0.000789 | Pressure (   99%):    0.000789 | Friction (    0%):    0.000000 | Momentum (    0%):    0.000000
Total CFx   (    0%):    0.000026 | Pressure (   99%):    0.000026 | Friction (    0%):    0.000000 | Momentum (    0%):    0.000000
Total CFy   (    3%):    0.000176 | Pressure (   99%):    0.000176 | Friction (    0%):    0.000000 | Momentum (    0%):    0.000000
Total CFz   (   -2%):   -0.002546 | Pressure (  100%):   -0.002546 | Friction (    0%):    0.000000 | Momentum (    0%):    0.000000

Surface name: Wing1_Seg2

Total CL    (   14%):    0.017254 | Pressure (   99%):    0.017254 | Friction (    0%):    0.000000 | Momentum (    0%):    0.000000
Total CD    (   16%):   -0.010378 | Pressure (  100%):   -0.010378 | Friction (    0%):    0.000000 | Momentum (    0%):    0.000000
Total CSF   (   91%):    0.004349 | Pressure (   99%):    0.004349 | Friction (    0%):    0.000000 | Momentum (    0%):    0.000000
Total CL/CD (   87%):   -1.662639 | Pressure (  100%):   -1.662639 | Friction (    0%):    0.000000 | Momentum (    0%):    0.000000
Total CMx   (-3178%):    0.017185 | Pressure (   99%):    0.017185 | Friction (    0%):    0.000000 | Momentum (    0%):    0.000000
Total CMy   (   12%):   -0.055543 | Pressure (  100%):   -0.055543 | Friction (    0%):    0.000000 | Momentum (    0%):    0.000000
Total CMz   (   74%):    0.026586 | Pressure (   99%):    0.026586 | Friction (    0%):    0.000000 | Momentum (    0%):    0.000000
Total CFx   (   16%):   -0.010378 | Pressure (  100%):   -0.010378 | Friction (    0%):    0.000000 | Momentum (    0%):    0.000000
Total CFy   (   91%):    0.004349 | Pressure (   99%):    0.004349 | Friction (    0%):    0.000000 | Momentum (    0%):    0.000000
Total CFz   (   14%):    0.017254 | Pressure (   99%):    0.017254 | Friction (    0%):    0.000000 | Momentum (    0%):    0.000000

Surface name: Wing1_Seg2_mirrored

Total CL    (   15%):    0.017768 | Pressure (   99%):    0.017768 | Friction (    0%):    0.000000 | Momentum (    0%):    0.000000
Total CD    (   16%):   -0.010287 | Pressure (  100%):   -0.010287 | Friction (    0%):    0.000000 | Momentum (    0%):    0.000000
Total CSF   (  -88%):   -0.004216 | Pressure (  100%):   -0.004216 | Friction (    0%):    0.000000 | Momentum (    0%):    0.000000
Total CL/CD (   90%):   -1.727213 | Pressure (  100%):   -1.727213 | Friction (    0%):    0.000000 | Momentum (    0%):    0.000000
Total CMx   ( 3297%):   -0.017823 | Pressure (  100%):   -0.017823 | Friction (    0%):    0.000000 | Momentum (    0%):    0.000000
Total CMy   (   12%):   -0.057736 | Pressure (  100%):   -0.057736 | Friction (    0%):    0.000000 | Momentum (    0%):    0.000000
Total CMz   (  -72%):   -0.025993 | Pressure (  100%):   -0.025993 | Friction (    0%):    0.000000 | Momentum (    0%):    0.000000
Total CFx   (   16%):   -0.010287 | Pressure (  100%):   -0.010287 | Friction (    0%):    0.000000 | Momentum (    0%):    0.000000
Total CFy   (  -88%):   -0.004216 | Pressure (  100%):   -0.004216 | Friction (    0%):    0.000000 | Momentum (    0%):    0.000000
Total CFz   (   15%):    0.017768 | Pressure (   99%):    0.017768 | Friction (    0%):    0.000000 | Momentum (    0%):    0.000000

Surface name: Wing1_Seg3

Total CL    (   20%):    0.023565 | Pressure (   99%):    0.023565 | Friction (    0%):    0.000000 | Momentum (    0%):    0.000000
Total CD    (   18%):   -0.011643 | Pressure (  100%):   -0.011643 | Friction (    0%):    0.000000 | Momentum (    0%):    0.000000
Total CSF   (   89%):    0.004262 | Pressure (   99%):    0.004262 | Friction (    0%):    0.000000 | Momentum (    0%):    0.000000
Total CL/CD (  106%):   -2.023971 | Pressure (  100%):   -2.023971 | Friction (    0%):    0.000000 | Momentum (    0%):    0.000000
Total CMx   (-11270%):    0.060927 | Pressure (   99%):    0.060927 | Friction (    0%):    0.000000 | Momentum (    0%):    0.000000
Total CMy   (   21%):   -0.097823 | Pressure (  100%):   -0.097823 | Friction (    0%):    0.000000 | Momentum (    0%):    0.000000
Total CMz   (  140%):    0.050317 | Pressure (   99%):    0.050317 | Friction (    0%):    0.000000 | Momentum (    0%):    0.000000
Total CFx   (   18%):   -0.011643 | Pressure (  100%):   -0.011643 | Friction (    0%):    0.000000 | Momentum (    0%):    0.000000
Total CFy   (   89%):    0.004262 | Pressure (   99%):    0.004262 | Friction (    0%):    0.000000 | Momentum (    0%):    0.000000
Total CFz   (   20%):    0.023565 | Pressure (   99%):    0.023565 | Friction (    0%):    0.000000 | Momentum (    0%):    0.000000

Surface name: Wing1_Seg3_mirrored

Total CL    (   19%):    0.022652 | Pressure (   99%):    0.022652 | Friction (    0%):    0.000000 | Momentum (    0%):    0.000000
Total CD    (   19%):   -0.011909 | Pressure (  100%):   -0.011909 | Friction (    0%):    0.000000 | Momentum (    0%):    0.000000
Total CSF   (  -92%):   -0.004405 | Pressure (  100%):   -0.004405 | Friction (    0%):    0.000000 | Momentum (    0%):    0.000000
Total CL/CD (  100%):   -1.902011 | Pressure (  100%):   -1.902011 | Friction (    0%):    0.000000 | Momentum (    0%):    0.000000
Total CMx   (10809%):   -0.058437 | Pressure (  100%):   -0.058437 | Friction (    0%):    0.000000 | Momentum (    0%):    0.000000
Total CMy   (   20%):   -0.093553 | Pressure (  100%):   -0.093553 | Friction (    0%):    0.000000 | Momentum (    0%):    0.000000
Total CMz   ( -144%):   -0.051605 | Pressure (  100%):   -0.051605 | Friction (    0%):    0.000000 | Momentum (    0%):    0.000000
Total CFx   (   19%):   -0.011909 | Pressure (  100%):   -0.011909 | Friction (    0%):    0.000000 | Momentum (    0%):    0.000000
Total CFy   (  -92%):   -0.004405 | Pressure (  100%):   -0.004405 | Friction (    0%):    0.000000 | Momentum (    0%):    0.000000
Total CFz   (   19%):    0.022652 | Pressure (   99%):    0.022652 | Friction (    0%):    0.000000 | Momentum (    0%):    0.000000

Surface name: Wing2H_Seg1

Total CL    (   -6%):   -0.007184 | Pressure (  100%):   -0.007184 | Friction (    0%):    0.000000 | Momentum (    0%):    0.000000
Total CD    (    6%):   -0.003943 | Pressure (  100%):   -0.003943 | Friction (    0%):    0.000000 | Momentum (    0%):    0.000000
Total CSF   (   65%):    0.003115 | Pressure (   99%):    0.003115 | Friction (    0%):    0.000000 | Momentum (    0%):    0.000000
Total CL/CD (  -95%):    1.821955 | Pressure (  100%):    1.821955 | Friction (    0%):    0.000000 | Momentum (    0%):    0.000000
Total CMx   ( 1079%):   -0.005838 | Pressure (  100%):   -0.005838 | Friction (    0%):    0.000000 | Momentum (    0%):    0.000000
Total CMy   (  -12%):    0.056999 | Pressure (   99%):    0.056999 | Friction (    0%):    0.000000 | Momentum (    0%):    0.000000
Total CMz   (   80%):    0.028640 | Pressure (   99%):    0.028640 | Friction (    0%):    0.000000 | Momentum (    0%):    0.000000
Total CFx   (    6%):   -0.003943 | Pressure (  100%):   -0.003943 | Friction (    0%):    0.000000 | Momentum (    0%):    0.000000
Total CFy   (   65%):    0.003115 | Pressure (   99%):    0.003115 | Friction (    0%):    0.000000 | Momentum (    0%):    0.000000
Total CFz   (   -6%):   -0.007184 | Pressure (  100%):   -0.007184 | Friction (    0%):    0.000000 | Momentum (    0%):    0.000000

Surface name: Wing2H_Seg1_mirrored

Total CL    (   -7%):   -0.008410 | Pressure (  100%):   -0.008410 | Friction (    0%):    0.000000 | Momentum (    0%):    0.000000
Total CD    (    6%):   -0.003850 | Pressure (  100%):   -0.003850 | Friction (    0%):    0.000000 | Momentum (    0%):    0.000000
Total CSF   (  -65%):   -0.003124 | Pressure (  100%):   -0.003124 | Friction (    0%):    0.000000 | Momentum (    0%):    0.000000
Total CL/CD ( -115%):    2.184702 | Pressure (  100%):    2.184702 | Friction (    0%):    0.000000 | Momentum (    0%):    0.000000
Total CMx   (-1270%):    0.006866 | Pressure (   99%):    0.006866 | Friction (    0%):    0.000000 | Momentum (    0%):    0.000000
Total CMy   (  -15%):    0.067324 | Pressure (   99%):    0.067324 | Friction (    0%):    0.000000 | Momentum (    0%):    0.000000
Total CMz   (  -80%):   -0.028615 | Pressure (  100%):   -0.028615 | Friction (    0%):    0.000000 | Momentum (    0%):    0.000000
Total CFx   (    6%):   -0.003850 | Pressure (  100%):   -0.003850 | Friction (    0%):    0.000000 | Momentum (    0%):    0.000000
Total CFy   (  -65%):   -0.003124 | Pressure (  100%):   -0.003124 | Friction (    0%):    0.000000 | Momentum (    0%):    0.000000
Total CFz   (   -7%):   -0.008410 | Pressure (  100%):   -0.008410 | Friction (    0%):    0.000000 | Momentum (    0%):    0.000000

Surface name: Wing3V_Seg1

Total CL    (    2%):    0.003012 | Pressure (   99%):    0.003012 | Friction (    0%):    0.000000 | Momentum (    0%):    0.000000
Total CD    (    5%):   -0.003446 | Pressure (  100%):   -0.003446 | Friction (    0%):    0.000000 | Momentum (    0%):    0.000000
Total CSF   ( -425%):   -0.020168 | Pressure (  100%):   -0.020168 | Friction (    0%):    0.000000 | Momentum (    0%):    0.000000
Total CL/CD (   46%):   -0.874080 | Pressure (  100%):   -0.874080 | Friction (    0%):    0.000000 | Momentum (    0%):    0.000000
Total CMx   (-3638%):    0.019670 | Pressure (   99%):    0.019670 | Friction (    0%):    0.000000 | Momentum (    0%):    0.000000
Total CMy   (    6%):   -0.027480 | Pressure (  100%):   -0.027480 | Friction (    0%):    0.000000 | Momentum (    0%):    0.000000
Total CMz   ( -442%):   -0.158056 | Pressure (  100%):   -0.158056 | Friction (    0%):    0.000000 | Momentum (    0%):    0.000000
Total CFx   (    5%):   -0.003446 | Pressure (  100%):   -0.003446 | Friction (    0%):    0.000000 | Momentum (    0%):    0.000000
Total CFy   ( -425%):   -0.020168 | Pressure (  100%):   -0.020168 | Friction (    0%):    0.000000 | Momentum (    0%):    0.000000
Total CFz   (    2%):    0.003012 | Pressure (   99%):    0.003012 | Friction (    0%):    0.000000 | Momentum (    0%):    0.000000

Surface name: Wing3V_Seg1_mirrored

Total CL    (    3%):    0.003716 | Pressure (   99%):    0.003716 | Friction (    0%):    0.000000 | Momentum (    0%):    0.000000
Total CD    (    7%):   -0.004412 | Pressure (  100%):   -0.004412 | Friction (    0%):    0.000000 | Momentum (    0%):    0.000000
Total CSF   (  438%):    0.020797 | Pressure (   99%):    0.020797 | Friction (    0%):    0.000000 | Momentum (    0%):    0.000000
Total CL/CD (   44%):   -0.842343 | Pressure (  100%):   -0.842343 | Friction (    0%):    0.000000 | Momentum (    0%):    0.000000
Total CMx   ( 3720%):   -0.020115 | Pressure (  100%):   -0.020115 | Friction (    0%):    0.000000 | Momentum (    0%):    0.000000
Total CMy   (    7%):   -0.034347 | Pressure (  100%):   -0.034347 | Friction (    0%):    0.000000 | Momentum (    0%):    0.000000
Total CMz   (  454%):    0.162330 | Pressure (   99%):    0.162330 | Friction (    0%):    0.000000 | Momentum (    0%):    0.000000
Total CFx   (    7%):   -0.004412 | Pressure (  100%):   -0.004412 | Friction (    0%):    0.000000 | Momentum (    0%):    0.000000
Total CFy   (  438%):    0.020797 | Pressure (   99%):    0.020797 | Friction (    0%):    0.000000 | Momentum (    0%):    0.000000
Total CFz   (    3%):    0.003716 | Pressure (   99%):    0.003716 | Friction (    0%):    0.000000 | Momentum (    0%):    0.000000

Surface name: left_plain_aileron_Wing1_Seg3

Total CL    (    3%):    0.004359 | Pressure (   99%):    0.004359 | Friction (    0%):    0.000000 | Momentum (    0%):    0.000000
Total CD    (   -5%):    0.003678 | Pressure (   99%):    0.003678 | Friction (    0%):    0.000000 | Momentum (    0%):    0.000000
Total CSF   (   35%):    0.001703 | Pressure (   99%):    0.001703 | Friction (    0%):    0.000000 | Momentum (    0%):    0.000000
Total CL/CD (  -62%):    1.185225 | Pressure (  100%):    1.185225 | Friction (    0%):    0.000000 | Momentum (    0%):    0.000000
Total CMx   ( 1800%):   -0.009731 | Pressure (  100%):   -0.009731 | Friction (    0%):    0.000000 | Momentum (    0%):    0.000000
Total CMy   (    4%):   -0.020729 | Pressure (  100%):   -0.020729 | Friction (    0%):    0.000000 | Momentum (    0%):    0.000000
Total CMz   (   45%):    0.016379 | Pressure (   99%):    0.016379 | Friction (    0%):    0.000000 | Momentum (    0%):    0.000000
Total CFx   (   -5%):    0.003678 | Pressure (   99%):    0.003678 | Friction (    0%):    0.000000 | Momentum (    0%):    0.000000
Total CFy   (   35%):    0.001703 | Pressure (   99%):    0.001703 | Friction (    0%):    0.000000 | Momentum (    0%):    0.000000
Total CFz   (    3%):    0.004359 | Pressure (   99%):    0.004359 | Friction (    0%):    0.000000 | Momentum (    0%):    0.000000

Surface name: plain_flap_Wing1_Seg2

Total CL    (    8%):    0.009463 | Pressure (   99%):    0.009463 | Friction (    0%):    0.000000 | Momentum (    0%):    0.000000
Total CD    (    0%):    0.000468 | Pressure (   99%):    0.000468 | Friction (    0%):    0.000000 | Momentum (    0%):    0.000000
Total CSF   (  -16%):   -0.000773 | Pressure (  100%):   -0.000773 | Friction (    0%):    0.000000 | Momentum (    0%):    0.000000
Total CL/CD (-1065%):   20.227446 | Pressure (  100%):   20.227446 | Friction (    0%):    0.000000 | Momentum (    0%):    0.000000
Total CMx   (-1611%):    0.008713 | Pressure (   99%):    0.008713 | Friction (    0%):    0.000000 | Momentum (    0%):    0.000000
Total CMy   (    9%):   -0.040928 | Pressure (  100%):   -0.040928 | Friction (    0%):    0.000000 | Momentum (    0%):    0.000000
Total CMz   (  -10%):   -0.003673 | Pressure (  100%):   -0.003673 | Friction (    0%):    0.000000 | Momentum (    0%):    0.000000
Total CFx   (    0%):    0.000468 | Pressure (   99%):    0.000468 | Friction (    0%):    0.000000 | Momentum (    0%):    0.000000
Total CFy   (  -16%):   -0.000773 | Pressure (  100%):   -0.000773 | Friction (    0%):    0.000000 | Momentum (    0%):    0.000000
Total CFz   (    8%):    0.009463 | Pressure (   99%):    0.009463 | Friction (    0%):    0.000000 | Momentum (    0%):    0.000000

Surface name: plain_flap_Wing1_Seg2_mirrored

Total CL    (    6%):    0.007915 | Pressure (   99%):    0.007915 | Friction (    0%):    0.000000 | Momentum (    0%):    0.000000
Total CD    (   -1%):    0.000908 | Pressure (   99%):    0.000908 | Friction (    0%):    0.000000 | Momentum (    0%):    0.000000
Total CSF   (   14%):    0.000678 | Pressure (   99%):    0.000678 | Friction (    0%):    0.000000 | Momentum (    0%):    0.000000
Total CL/CD ( -459%):    8.716952 | Pressure (  100%):    8.716952 | Friction (    0%):    0.000000 | Momentum (    0%):    0.000000
Total CMx   ( 1407%):   -0.007609 | Pressure (  100%):   -0.007609 | Friction (    0%):    0.000000 | Momentum (    0%):    0.000000
Total CMy   (    7%):   -0.034384 | Pressure (  100%):   -0.034384 | Friction (    0%):    0.000000 | Momentum (    0%):    0.000000
Total CMz   (   10%):    0.003732 | Pressure (   99%):    0.003732 | Friction (    0%):    0.000000 | Momentum (    0%):    0.000000
Total CFx   (   -1%):    0.000908 | Pressure (   99%):    0.000908 | Friction (    0%):    0.000000 | Momentum (    0%):    0.000000
Total CFy   (   14%):    0.000678 | Pressure (   99%):    0.000678 | Friction (    0%):    0.000000 | Momentum (    0%):    0.000000
Total CFz   (    6%):    0.007915 | Pressure (   99%):    0.007915 | Friction (    0%):    0.000000 | Momentum (    0%):    0.000000

Surface name: plain_rudder_Wing3V_Seg1

Total CL    (   -1%):   -0.001212 | Pressure (  100%):   -0.001212 | Friction (    0%):    0.000000 | Momentum (    0%):    0.000000
Total CD    (   -3%):    0.002275 | Pressure (   99%):    0.002275 | Friction (    0%):    0.000000 | Momentum (    0%):    0.000000
Total CSF   (   49%):    0.002351 | Pressure (   99%):    0.002351 | Friction (    0%):    0.000000 | Momentum (    0%):    0.000000
Total CL/CD (   28%):   -0.532854 | Pressure (  100%):   -0.532854 | Friction (    0%):    0.000000 | Momentum (    0%):    0.000000
Total CMx   (  429%):   -0.002323 | Pressure (  100%):   -0.002323 | Friction (    0%):    0.000000 | Momentum (    0%):    0.000000
Total CMy   (   -2%):    0.011845 | Pressure (   99%):    0.011845 | Friction (    0%):    0.000000 | Momentum (    0%):    0.000000
Total CMz   (   56%):    0.020057 | Pressure (   99%):    0.020057 | Friction (    0%):    0.000000 | Momentum (    0%):    0.000000
Total CFx   (   -3%):    0.002275 | Pressure (   99%):    0.002275 | Friction (    0%):    0.000000 | Momentum (    0%):    0.000000
Total CFy   (   49%):    0.002351 | Pressure (   99%):    0.002351 | Friction (    0%):    0.000000 | Momentum (    0%):    0.000000
Total CFz   (   -1%):   -0.001212 | Pressure (  100%):   -0.001212 | Friction (    0%):    0.000000 | Momentum (    0%):    0.000000

Surface name: right_plain_aileron_Wing1_Seg3

Total CL    (    3%):    0.003581 | Pressure (   99%):    0.003581 | Friction (    0%):    0.000000 | Momentum (    0%):    0.000000
Total CD    (   -6%):    0.003805 | Pressure (   99%):    0.003805 | Friction (    0%):    0.000000 | Momentum (    0%):    0.000000
Total CSF   (  -34%):   -0.001627 | Pressure (  100%):   -0.001627 | Friction (    0%):    0.000000 | Momentum (    0%):    0.000000
Total CL/CD (  -49%):    0.941328 | Pressure (   99%):    0.941328 | Friction (    0%):    0.000000 | Momentum (    0%):    0.000000
Total CMx   (-1506%):    0.008146 | Pressure (   99%):    0.008146 | Friction (    0%):    0.000000 | Momentum (    0%):    0.000000
Total CMy   (    3%):   -0.017245 | Pressure (  100%):   -0.017245 | Friction (    0%):    0.000000 | Momentum (    0%):    0.000000
Total CMz   (  -45%):   -0.016275 | Pressure (  100%):   -0.016275 | Friction (    0%):    0.000000 | Momentum (    0%):    0.000000
Total CFx   (   -6%):    0.003805 | Pressure (   99%):    0.003805 | Friction (    0%):    0.000000 | Momentum (    0%):    0.000000
Total CFy   (  -34%):   -0.001627 | Pressure (  100%):   -0.001627 | Friction (    0%):    0.000000 | Momentum (    0%):    0.000000
Total CFz   (    3%):    0.003581 | Pressure (   99%):    0.003581 | Friction (    0%):    0.000000 | Momentum (    0%):    0.000000

