
-------------------------------------------------------------------------
|    ___ _   _ ___                                                      |
|   / __| | | |_  )   Release 8.1.0 "Harrier"                           |
|   \__ \ |_| |/ /                                                      |
|   |___/\___//___|   Suite (Computational Fluid Dynamics Code)         |
|                                                                       |
-------------------------------------------------------------------------
| SU2 Project Website: https://su2code.github.io                        |
|                                                                       |
| The SU2 Project is maintained by the SU2 Foundation                   |
| (http://su2foundation.org)                                            |
-------------------------------------------------------------------------
| Copyright 2012-2024, SU2 Contributors                                 |
|                                                                       |
| SU2 is free software; you can redistribute it and/or                  |
| modify it under the terms of the GNU Lesser General Public            |
| License as published by the Free Software Foundation; either          |
| version 2.1 of the License, or (at your option) any later version.    |
|                                                                       |
| SU2 is distributed in the hope that it will be useful,                |
| but WITHOUT ANY WARRANTY; without even the implied warranty of        |
| MERCHANTABILITY or FITNESS FOR A PARTICULAR PURPOSE. See the GNU      |
| Lesser General Public License for more details.                       |
|                                                                       |
| You should have received a copy of the GNU Lesser General Public      |
| License along with SU2. If not, see <http://www.gnu.org/licenses/>.   |
-------------------------------------------------------------------------


Problem definition:

Compressible Euler equations.
Mach number: 0.3.
Angle of attack (AoA): 0 deg, and angle of sideslip (AoS): 0 deg.
Non-Dimensional simulation (V=1.0, Rho=1.0, T=1.0 at the farfield).
The reference area is 122.4 m^2.
The reference length is 4.193 m.


Problem definition:

Inviscid flow: Computing density based on free-stream
temperature and pressure using the ideal gas law.
Force coefficients computed using MACH_MOTION.
-- Input conditions:
Fluid Model: STANDARD_AIR 
Specific gas constant: 287.058 N.m/kg.K.
Specific gas constant (non-dim): 7.93651
Specific Heat Ratio: 1.4000 
Free-stream static pressure: 101325 Pa.
Free-stream total pressure: 107853 Pa.
Free-stream temperature: 288.15 K.
Free-stream total temperature: 293.337 K.
Free-stream density: 1.22498 kg/m^3.
Free-stream velocity: (102.089, 0, 0) m/s. Magnitude: 102.089 m/s.
Free-stream total energy per unit mass: 212000 m^2/s^2.
Total time: 0 s. Time step: 3.61103 s.
-- Reference values:
Reference specific gas constant: 36.1693 N.m/kg.K.
Reference pressure: 12767 Pa.
Reference temperature: 288.15 K.
Reference density: 1.22498 kg/m^3.
Reference velocity: 102.089 m/s.
Reference energy per unit mass: 10422.2 m^2/s^2.
Reference time: 0.00979536 s.
-- Resulting non-dimensional state:
Mach number (non-dim): 0.3
Specific gas constant (non-dim): 7.93651
Free-stream temperature (non-dim): 1
Free-stream pressure (non-dim): 7.93651
Free-stream density (non-dim): 1
Free-stream velocity (non-dim): (1, 0, 0). Magnitude: 1
Free-stream total energy per unit mass (non-dim): 20.3413
Total time (non-dim): 0
Time step (non-dim): 368.646


Forces breakdown:

Center of Pressure: X=-0.365652Z+16.502183 m.

NOTE: Multiply forces by the non-dimensional factor: 61.200000, and the reference factor: 12766.950000
to obtain the dimensional force.

Total CL:       0.167935 | Pressure (   99%):    0.167935 | Friction (    0%):    0.000000 | Momentum (    0%):    0.000000
Total CD:      -0.061406 | Pressure (  100%):   -0.061406 | Friction (    0%):    0.000000 | Momentum (    0%):    0.000000
Total CSF:      0.004928 | Pressure (   99%):    0.004928 | Friction (    0%):    0.000000 | Momentum (    0%):    0.000000
Total CL/CD:   -2.734842 | Pressure (  100%):   -2.734842 | Friction (    0%):    0.000000 | Momentum (    0%):    0.000000
Total CMx:     -0.001081 | Pressure (  100%):   -0.001081 | Friction (    0%):    0.000000 | Momentum (    0%):    0.000000
Total CMy:     -0.660934 | Pressure (  100%):   -0.660934 | Friction (    0%):    0.000000 | Momentum (    0%):    0.000000
Total CMz:      0.037357 | Pressure (   99%):    0.037357 | Friction (    0%):    0.000000 | Momentum (    0%):    0.000000
Total CFx:     -0.061406 | Pressure (  100%):   -0.061406 | Friction (    0%):    0.000000 | Momentum (    0%):    0.000000
Total CFy:      0.004928 | Pressure (   99%):    0.004928 | Friction (    0%):    0.000000 | Momentum (    0%):    0.000000
Total CFz:      0.167935 | Pressure (   99%):    0.167935 | Friction (    0%):    0.000000 | Momentum (    0%):    0.000000


Surface name: Fuselage1

Total CL    (   19%):    0.032063 | Pressure (   99%):    0.032063 | Friction (    0%):    0.000000 | Momentum (    0%):    0.000000
Total CD    (   21%):   -0.013473 | Pressure (  100%):   -0.013473 | Friction (    0%):    0.000000 | Momentum (    0%):    0.000000
Total CSF   (   34%):    0.001712 | Pressure (   99%):    0.001712 | Friction (    0%):    0.000000 | Momentum (    0%):    0.000000
Total CL/CD (   87%):   -2.379743 | Pressure (  100%):   -2.379743 | Friction (    0%):    0.000000 | Momentum (    0%):    0.000000
Total CMx   (    7%):   -0.000080 | Pressure (  100%):   -0.000080 | Friction (    0%):    0.000000 | Momentum (    0%):    0.000000
Total CMy   (   21%):   -0.141310 | Pressure (  100%):   -0.141310 | Friction (    0%):    0.000000 | Momentum (    0%):    0.000000
Total CMz   (   29%):    0.011107 | Pressure (   99%):    0.011107 | Friction (    0%):    0.000000 | Momentum (    0%):    0.000000
Total CFx   (   21%):   -0.013473 | Pressure (  100%):   -0.013473 | Friction (    0%):    0.000000 | Momentum (    0%):    0.000000
Total CFy   (   34%):    0.001712 | Pressure (   99%):    0.001712 | Friction (    0%):    0.000000 | Momentum (    0%):    0.000000
Total CFz   (   19%):    0.032063 | Pressure (   99%):    0.032063 | Friction (    0%):    0.000000 | Momentum (    0%):    0.000000

Surface name: Wing1_Seg1

Total CL    (   -1%):   -0.002187 | Pressure (  100%):   -0.002187 | Friction (    0%):    0.000000 | Momentum (    0%):    0.000000
Total CD    (    0%):    0.000054 | Pressure (   99%):    0.000054 | Friction (    0%):    0.000000 | Momentum (    0%):    0.000000
Total CSF   (   -3%):   -0.000188 | Pressure (  100%):   -0.000188 | Friction (    0%):    0.000000 | Momentum (    0%):    0.000000
Total CL/CD ( 1491%):  -40.790011 | Pressure (  100%):  -40.790011 | Friction (    0%):    0.000000 | Momentum (    0%):    0.000000
Total CMx   (   78%):   -0.000845 | Pressure (  100%):   -0.000845 | Friction (    0%):    0.000000 | Momentum (    0%):    0.000000
Total CMy   (   -1%):    0.007038 | Pressure (   99%):    0.007038 | Friction (    0%):    0.000000 | Momentum (    0%):    0.000000
Total CMz   (   -2%):   -0.000848 | Pressure (  100%):   -0.000848 | Friction (    0%):    0.000000 | Momentum (    0%):    0.000000
Total CFx   (    0%):    0.000054 | Pressure (   99%):    0.000054 | Friction (    0%):    0.000000 | Momentum (    0%):    0.000000
Total CFy   (   -3%):   -0.000188 | Pressure (  100%):   -0.000188 | Friction (    0%):    0.000000 | Momentum (    0%):    0.000000
Total CFz   (   -1%):   -0.002187 | Pressure (  100%):   -0.002187 | Friction (    0%):    0.000000 | Momentum (    0%):    0.000000

Surface name: Wing1_Seg1_mirrored

Total CL    (   -1%):   -0.002113 | Pressure (  100%):   -0.002113 | Friction (    0%):    0.000000 | Momentum (    0%):    0.000000
Total CD    (    0%):    0.000043 | Pressure (   99%):    0.000043 | Friction (    0%):    0.000000 | Momentum (    0%):    0.000000
Total CSF   (    4%):    0.000199 | Pressure (   99%):    0.000199 | Friction (    0%):    0.000000 | Momentum (    0%):    0.000000
Total CL/CD ( 1782%):  -48.753832 | Pressure (  100%):  -48.753832 | Friction (    0%):    0.000000 | Momentum (    0%):    0.000000
Total CMx   (  -76%):    0.000822 | Pressure (   99%):    0.000822 | Friction (    0%):    0.000000 | Momentum (    0%):    0.000000
Total CMy   (   -1%):    0.006764 | Pressure (   99%):    0.006764 | Friction (    0%):    0.000000 | Momentum (    0%):    0.000000
Total CMz   (    2%):    0.000895 | Pressure (   99%):    0.000895 | Friction (    0%):    0.000000 | Momentum (    0%):    0.000000
Total CFx   (    0%):    0.000043 | Pressure (   99%):    0.000043 | Friction (    0%):    0.000000 | Momentum (    0%):    0.000000
Total CFy   (    4%):    0.000199 | Pressure (   99%):    0.000199 | Friction (    0%):    0.000000 | Momentum (    0%):    0.000000
Total CFz   (   -1%):   -0.002113 | Pressure (  100%):   -0.002113 | Friction (    0%):    0.000000 | Momentum (    0%):    0.000000

Surface name: Wing1_Seg2

Total CL    (   14%):    0.025149 | Pressure (   99%):    0.025149 | Friction (    0%):    0.000000 | Momentum (    0%):    0.000000
Total CD    (   16%):   -0.010388 | Pressure (  100%):   -0.010388 | Friction (    0%):    0.000000 | Momentum (    0%):    0.000000
Total CSF   (   78%):    0.003884 | Pressure (   99%):    0.003884 | Friction (    0%):    0.000000 | Momentum (    0%):    0.000000
Total CL/CD (   88%):   -2.421070 | Pressure (  100%):   -2.421070 | Friction (    0%):    0.000000 | Momentum (    0%):    0.000000
Total CMx   (-2282%):    0.024668 | Pressure (   99%):    0.024668 | Friction (    0%):    0.000000 | Momentum (    0%):    0.000000
Total CMy   (   12%):   -0.083678 | Pressure (  100%):   -0.083678 | Friction (    0%):    0.000000 | Momentum (    0%):    0.000000
Total CMz   (   66%):    0.024862 | Pressure (   99%):    0.024862 | Friction (    0%):    0.000000 | Momentum (    0%):    0.000000
Total CFx   (   16%):   -0.010388 | Pressure (  100%):   -0.010388 | Friction (    0%):    0.000000 | Momentum (    0%):    0.000000
Total CFy   (   78%):    0.003884 | Pressure (   99%):    0.003884 | Friction (    0%):    0.000000 | Momentum (    0%):    0.000000
Total CFz   (   14%):    0.025149 | Pressure (   99%):    0.025149 | Friction (    0%):    0.000000 | Momentum (    0%):    0.000000

Surface name: Wing1_Seg2_mirrored

Total CL    (   15%):    0.025724 | Pressure (   99%):    0.025724 | Friction (    0%):    0.000000 | Momentum (    0%):    0.000000
Total CD    (   16%):   -0.010259 | Pressure (  100%):   -0.010259 | Friction (    0%):    0.000000 | Momentum (    0%):    0.000000
Total CSF   (  -75%):   -0.003730 | Pressure (  100%):   -0.003730 | Friction (    0%):    0.000000 | Momentum (    0%):    0.000000
Total CL/CD (   91%):   -2.507518 | Pressure (  100%):   -2.507518 | Friction (    0%):    0.000000 | Momentum (    0%):    0.000000
Total CMx   ( 2346%):   -0.025362 | Pressure (  100%):   -0.025362 | Friction (    0%):    0.000000 | Momentum (    0%):    0.000000
Total CMy   (   13%):   -0.086119 | Pressure (  100%):   -0.086119 | Friction (    0%):    0.000000 | Momentum (    0%):    0.000000
Total CMz   (  -64%):   -0.024144 | Pressure (  100%):   -0.024144 | Friction (    0%):    0.000000 | Momentum (    0%):    0.000000
Total CFx   (   16%):   -0.010259 | Pressure (  100%):   -0.010259 | Friction (    0%):    0.000000 | Momentum (    0%):    0.000000
Total CFy   (  -75%):   -0.003730 | Pressure (  100%):   -0.003730 | Friction (    0%):    0.000000 | Momentum (    0%):    0.000000
Total CFz   (   15%):    0.025724 | Pressure (   99%):    0.025724 | Friction (    0%):    0.000000 | Momentum (    0%):    0.000000

Surface name: Wing1_Seg3

Total CL    (   20%):    0.034331 | Pressure (   99%):    0.034331 | Friction (    0%):    0.000000 | Momentum (    0%):    0.000000
Total CD    (   18%):   -0.011336 | Pressure (  100%):   -0.011336 | Friction (    0%):    0.000000 | Momentum (    0%):    0.000000
Total CSF   (   71%):    0.003527 | Pressure (   99%):    0.003527 | Friction (    0%):    0.000000 | Momentum (    0%):    0.000000
Total CL/CD (  110%):   -3.028401 | Pressure (  100%):   -3.028401 | Friction (    0%):    0.000000 | Momentum (    0%):    0.000000
Total CMx   (-8142%):    0.088012 | Pressure (   99%):    0.088012 | Friction (    0%):    0.000000 | Momentum (    0%):    0.000000
Total CMy   (   21%):   -0.143750 | Pressure (  100%):   -0.143750 | Friction (    0%):    0.000000 | Momentum (    0%):    0.000000
Total CMz   (  123%):    0.046291 | Pressure (   99%):    0.046291 | Friction (    0%):    0.000000 | Momentum (    0%):    0.000000
Total CFx   (   18%):   -0.011336 | Pressure (  100%):   -0.011336 | Friction (    0%):    0.000000 | Momentum (    0%):    0.000000
Total CFy   (   71%):    0.003527 | Pressure (   99%):    0.003527 | Friction (    0%):    0.000000 | Momentum (    0%):    0.000000
Total CFz   (   20%):    0.034331 | Pressure (   99%):    0.034331 | Friction (    0%):    0.000000 | Momentum (    0%):    0.000000

Surface name: Wing1_Seg3_mirrored

Total CL    (   19%):    0.033488 | Pressure (   99%):    0.033488 | Friction (    0%):    0.000000 | Momentum (    0%):    0.000000
Total CD    (   18%):   -0.011616 | Pressure (  100%):   -0.011616 | Friction (    0%):    0.000000 | Momentum (    0%):    0.000000
Total CSF   (  -74%):   -0.003664 | Pressure (  100%):   -0.003664 | Friction (    0%):    0.000000 | Momentum (    0%):    0.000000
Total CL/CD (  105%):   -2.882874 | Pressure (  100%):   -2.882874 | Friction (    0%):    0.000000 | Momentum (    0%):    0.000000
Total CMx   ( 7928%):   -0.085699 | Pressure (  100%):   -0.085699 | Friction (    0%):    0.000000 | Momentum (    0%):    0.000000
Total CMy   (   21%):   -0.139770 | Pressure (  100%):   -0.139770 | Friction (    0%):    0.000000 | Momentum (    0%):    0.000000
Total CMz   ( -127%):   -0.047588 | Pressure (  100%):   -0.047588 | Friction (    0%):    0.000000 | Momentum (    0%):    0.000000
Total CFx   (   18%):   -0.011616 | Pressure (  100%):   -0.011616 | Friction (    0%):    0.000000 | Momentum (    0%):    0.000000
Total CFy   (  -74%):   -0.003664 | Pressure (  100%):   -0.003664 | Friction (    0%):    0.000000 | Momentum (    0%):    0.000000
Total CFz   (   19%):    0.033488 | Pressure (   99%):    0.033488 | Friction (    0%):    0.000000 | Momentum (    0%):    0.000000

Surface name: Wing2H_Seg1

Total CL    (   -3%):   -0.005326 | Pressure (  100%):   -0.005326 | Friction (    0%):    0.000000 | Momentum (    0%):    0.000000
Total CD    (    6%):   -0.003955 | Pressure (  100%):   -0.003955 | Friction (    0%):    0.000000 | Momentum (    0%):    0.000000
Total CSF   (   59%):    0.002912 | Pressure (   99%):    0.002912 | Friction (    0%):    0.000000 | Momentum (    0%):    0.000000
Total CL/CD (  -49%):    1.346575 | Pressure (  100%):    1.346575 | Friction (    0%):    0.000000 | Momentum (    0%):    0.000000
Total CMx   (  386%):   -0.004176 | Pressure (  100%):   -0.004176 | Friction (    0%):    0.000000 | Momentum (    0%):    0.000000
Total CMy   (   -6%):    0.042044 | Pressure (   99%):    0.042044 | Friction (    0%):    0.000000 | Momentum (    0%):    0.000000
Total CMz   (   72%):    0.027011 | Pressure (   99%):    0.027011 | Friction (    0%):    0.000000 | Momentum (    0%):    0.000000
Total CFx   (    6%):   -0.003955 | Pressure (  100%):   -0.003955 | Friction (    0%):    0.000000 | Momentum (    0%):    0.000000
Total CFy   (   59%):    0.002912 | Pressure (   99%):    0.002912 | Friction (    0%):    0.000000 | Momentum (    0%):    0.000000
Total CFz   (   -3%):   -0.005326 | Pressure (  100%):   -0.005326 | Friction (    0%):    0.000000 | Momentum (    0%):    0.000000

Surface name: Wing2H_Seg1_mirrored

Total CL    (   -3%):   -0.006564 | Pressure (  100%):   -0.006564 | Friction (    0%):    0.000000 | Momentum (    0%):    0.000000
Total CD    (    6%):   -0.003881 | Pressure (  100%):   -0.003881 | Friction (    0%):    0.000000 | Momentum (    0%):    0.000000
Total CSF   (  -59%):   -0.002930 | Pressure (  100%):   -0.002930 | Friction (    0%):    0.000000 | Momentum (    0%):    0.000000
Total CL/CD (  -61%):    1.691256 | Pressure (  100%):    1.691256 | Friction (    0%):    0.000000 | Momentum (    0%):    0.000000
Total CMx   ( -481%):    0.005203 | Pressure (   99%):    0.005203 | Friction (    0%):    0.000000 | Momentum (    0%):    0.000000
Total CMy   (   -7%):    0.052446 | Pressure (   99%):    0.052446 | Friction (    0%):    0.000000 | Momentum (    0%):    0.000000
Total CMz   (  -72%):   -0.027068 | Pressure (  100%):   -0.027068 | Friction (    0%):    0.000000 | Momentum (    0%):    0.000000
Total CFx   (    6%):   -0.003881 | Pressure (  100%):   -0.003881 | Friction (    0%):    0.000000 | Momentum (    0%):    0.000000
Total CFy   (  -59%):   -0.002930 | Pressure (  100%):   -0.002930 | Friction (    0%):    0.000000 | Momentum (    0%):    0.000000
Total CFz   (   -3%):   -0.006564 | Pressure (  100%):   -0.006564 | Friction (    0%):    0.000000 | Momentum (    0%):    0.000000

Surface name: Wing3V_Seg1

Total CL    (    1%):    0.003025 | Pressure (   99%):    0.003025 | Friction (    0%):    0.000000 | Momentum (    0%):    0.000000
Total CD    (    6%):   -0.003690 | Pressure (  100%):   -0.003690 | Friction (    0%):    0.000000 | Momentum (    0%):    0.000000
Total CSF   ( -388%):   -0.019138 | Pressure (  100%):   -0.019138 | Friction (    0%):    0.000000 | Momentum (    0%):    0.000000
Total CL/CD (   29%):   -0.819845 | Pressure (  100%):   -0.819845 | Friction (    0%):    0.000000 | Momentum (    0%):    0.000000
Total CMx   (-1596%):    0.017252 | Pressure (   99%):    0.017252 | Friction (    0%):    0.000000 | Momentum (    0%):    0.000000
Total CMy   (    4%):   -0.027882 | Pressure (  100%):   -0.027882 | Friction (    0%):    0.000000 | Momentum (    0%):    0.000000
Total CMz   ( -400%):   -0.149521 | Pressure (  100%):   -0.149521 | Friction (    0%):    0.000000 | Momentum (    0%):    0.000000
Total CFx   (    6%):   -0.003690 | Pressure (  100%):   -0.003690 | Friction (    0%):    0.000000 | Momentum (    0%):    0.000000
Total CFy   ( -388%):   -0.019138 | Pressure (  100%):   -0.019138 | Friction (    0%):    0.000000 | Momentum (    0%):    0.000000
Total CFz   (    1%):    0.003025 | Pressure (   99%):    0.003025 | Friction (    0%):    0.000000 | Momentum (    0%):    0.000000

Surface name: Wing3V_Seg1_mirrored

Total CL    (    2%):    0.003610 | Pressure (   99%):    0.003610 | Friction (    0%):    0.000000 | Momentum (    0%):    0.000000
Total CD    (    7%):   -0.004472 | Pressure (  100%):   -0.004472 | Friction (    0%):    0.000000 | Momentum (    0%):    0.000000
Total CSF   (  405%):    0.019970 | Pressure (   99%):    0.019970 | Friction (    0%):    0.000000 | Momentum (    0%):    0.000000
Total CL/CD (   29%):   -0.807210 | Pressure (  100%):   -0.807210 | Friction (    0%):    0.000000 | Momentum (    0%):    0.000000
Total CMx   ( 1680%):   -0.018161 | Pressure (  100%):   -0.018161 | Friction (    0%):    0.000000 | Momentum (    0%):    0.000000
Total CMy   (    5%):   -0.033460 | Pressure (  100%):   -0.033460 | Friction (    0%):    0.000000 | Momentum (    0%):    0.000000
Total CMz   (  416%):    0.155729 | Pressure (   99%):    0.155729 | Friction (    0%):    0.000000 | Momentum (    0%):    0.000000
Total CFx   (    7%):   -0.004472 | Pressure (  100%):   -0.004472 | Friction (    0%):    0.000000 | Momentum (    0%):    0.000000
Total CFy   (  405%):    0.019970 | Pressure (   99%):    0.019970 | Friction (    0%):    0.000000 | Momentum (    0%):    0.000000
Total CFz   (    2%):    0.003610 | Pressure (   99%):    0.003610 | Friction (    0%):    0.000000 | Momentum (    0%):    0.000000

Surface name: left_plain_aileron_Wing1_Seg3

Total CL    (    3%):    0.005339 | Pressure (   99%):    0.005339 | Friction (    0%):    0.000000 | Momentum (    0%):    0.000000
Total CD    (   -6%):    0.003718 | Pressure (   99%):    0.003718 | Friction (    0%):    0.000000 | Momentum (    0%):    0.000000
Total CSF   (   35%):    0.001771 | Pressure (   99%):    0.001771 | Friction (    0%):    0.000000 | Momentum (    0%):    0.000000
Total CL/CD (  -52%):    1.436119 | Pressure (  100%):    1.436119 | Friction (    0%):    0.000000 | Momentum (    0%):    0.000000
Total CMx   ( 1142%):   -0.012347 | Pressure (  100%):   -0.012347 | Friction (    0%):    0.000000 | Momentum (    0%):    0.000000
Total CMy   (    3%):   -0.025477 | Pressure (  100%):   -0.025477 | Friction (    0%):    0.000000 | Momentum (    0%):    0.000000
Total CMz   (   45%):    0.016817 | Pressure (   99%):    0.016817 | Friction (    0%):    0.000000 | Momentum (    0%):    0.000000
Total CFx   (   -6%):    0.003718 | Pressure (   99%):    0.003718 | Friction (    0%):    0.000000 | Momentum (    0%):    0.000000
Total CFy   (   35%):    0.001771 | Pressure (   99%):    0.001771 | Friction (    0%):    0.000000 | Momentum (    0%):    0.000000
Total CFz   (    3%):    0.005339 | Pressure (   99%):    0.005339 | Friction (    0%):    0.000000 | Momentum (    0%):    0.000000

Surface name: plain_flap_Wing1_Seg2

Total CL    (    5%):    0.009835 | Pressure (   99%):    0.009835 | Friction (    0%):    0.000000 | Momentum (    0%):    0.000000
Total CD    (    0%):    0.000567 | Pressure (   99%):    0.000567 | Friction (    0%):    0.000000 | Momentum (    0%):    0.000000
Total CSF   (  -16%):   -0.000801 | Pressure (  100%):   -0.000801 | Friction (    0%):    0.000000 | Momentum (    0%):    0.000000
Total CL/CD ( -634%):   17.356177 | Pressure (  100%):   17.356177 | Friction (    0%):    0.000000 | Momentum (    0%):    0.000000
Total CMx   ( -840%):    0.009085 | Pressure (   99%):    0.009085 | Friction (    0%):    0.000000 | Momentum (    0%):    0.000000
Total CMy   (    6%):   -0.042564 | Pressure (  100%):   -0.042564 | Friction (    0%):    0.000000 | Momentum (    0%):    0.000000
Total CMz   (  -10%):   -0.003880 | Pressure (  100%):   -0.003880 | Friction (    0%):    0.000000 | Momentum (    0%):    0.000000
Total CFx   (    0%):    0.000567 | Pressure (   99%):    0.000567 | Friction (    0%):    0.000000 | Momentum (    0%):    0.000000
Total CFy   (  -16%):   -0.000801 | Pressure (  100%):   -0.000801 | Friction (    0%):    0.000000 | Momentum (    0%):    0.000000
Total CFz   (    5%):    0.009835 | Pressure (   99%):    0.009835 | Friction (    0%):    0.000000 | Momentum (    0%):    0.000000

Surface name: plain_flap_Wing1_Seg2_mirrored

Total CL    (    4%):    0.008295 | Pressure (   99%):    0.008295 | Friction (    0%):    0.000000 | Momentum (    0%):    0.000000
Total CD    (   -1%):    0.001007 | Pressure (   99%):    0.001007 | Friction (    0%):    0.000000 | Momentum (    0%):    0.000000
Total CSF   (   14%):    0.000709 | Pressure (   99%):    0.000709 | Friction (    0%):    0.000000 | Momentum (    0%):    0.000000
Total CL/CD ( -301%):    8.236659 | Pressure (  100%):    8.236659 | Friction (    0%):    0.000000 | Momentum (    0%):    0.000000
Total CMx   (  739%):   -0.007994 | Pressure (  100%):   -0.007994 | Friction (    0%):    0.000000 | Momentum (    0%):    0.000000
Total CMy   (    5%):   -0.036064 | Pressure (  100%):   -0.036064 | Friction (    0%):    0.000000 | Momentum (    0%):    0.000000
Total CMz   (   10%):    0.003958 | Pressure (   99%):    0.003958 | Friction (    0%):    0.000000 | Momentum (    0%):    0.000000
Total CFx   (   -1%):    0.001007 | Pressure (   99%):    0.001007 | Friction (    0%):    0.000000 | Momentum (    0%):    0.000000
Total CFy   (   14%):    0.000709 | Pressure (   99%):    0.000709 | Friction (    0%):    0.000000 | Momentum (    0%):    0.000000
Total CFz   (    4%):    0.008295 | Pressure (   99%):    0.008295 | Friction (    0%):    0.000000 | Momentum (    0%):    0.000000

Surface name: plain_rudder_Wing3V_Seg1

Total CL    (    0%):   -0.001318 | Pressure (  100%):   -0.001318 | Friction (    0%):    0.000000 | Momentum (    0%):    0.000000
Total CD    (   -3%):    0.002443 | Pressure (   99%):    0.002443 | Friction (    0%):    0.000000 | Momentum (    0%):    0.000000
Total CSF   (   48%):    0.002390 | Pressure (   99%):    0.002390 | Friction (    0%):    0.000000 | Momentum (    0%):    0.000000
Total CL/CD (   19%):   -0.539549 | Pressure (  100%):   -0.539549 | Friction (    0%):    0.000000 | Momentum (    0%):    0.000000
Total CMx   (  211%):   -0.002285 | Pressure (  100%):   -0.002285 | Friction (    0%):    0.000000 | Momentum (    0%):    0.000000
Total CMy   (   -1%):    0.012943 | Pressure (   99%):    0.012943 | Friction (    0%):    0.000000 | Momentum (    0%):    0.000000
Total CMz   (   54%):    0.020437 | Pressure (   99%):    0.020437 | Friction (    0%):    0.000000 | Momentum (    0%):    0.000000
Total CFx   (   -3%):    0.002443 | Pressure (   99%):    0.002443 | Friction (    0%):    0.000000 | Momentum (    0%):    0.000000
Total CFy   (   48%):    0.002390 | Pressure (   99%):    0.002390 | Friction (    0%):    0.000000 | Momentum (    0%):    0.000000
Total CFz   (    0%):   -0.001318 | Pressure (  100%):   -0.001318 | Friction (    0%):    0.000000 | Momentum (    0%):    0.000000

Surface name: right_plain_aileron_Wing1_Seg3

Total CL    (    2%):    0.004583 | Pressure (   99%):    0.004583 | Friction (    0%):    0.000000 | Momentum (    0%):    0.000000
Total CD    (   -6%):    0.003834 | Pressure (   99%):    0.003834 | Friction (    0%):    0.000000 | Momentum (    0%):    0.000000
Total CSF   (  -34%):   -0.001695 | Pressure (  100%):   -0.001695 | Friction (    0%):    0.000000 | Momentum (    0%):    0.000000
Total CL/CD (  -43%):    1.195101 | Pressure (  100%):    1.195101 | Friction (    0%):    0.000000 | Momentum (    0%):    0.000000
Total CMx   (-1001%):    0.010827 | Pressure (   99%):    0.010827 | Friction (    0%):    0.000000 | Momentum (    0%):    0.000000
Total CMy   (    3%):   -0.022094 | Pressure (  100%):   -0.022094 | Friction (    0%):    0.000000 | Momentum (    0%):    0.000000
Total CMz   (  -44%):   -0.016702 | Pressure (  100%):   -0.016702 | Friction (    0%):    0.000000 | Momentum (    0%):    0.000000
Total CFx   (   -6%):    0.003834 | Pressure (   99%):    0.003834 | Friction (    0%):    0.000000 | Momentum (    0%):    0.000000
Total CFy   (  -34%):   -0.001695 | Pressure (  100%):   -0.001695 | Friction (    0%):    0.000000 | Momentum (    0%):    0.000000
Total CFz   (    2%):    0.004583 | Pressure (   99%):    0.004583 | Friction (    0%):    0.000000 | Momentum (    0%):    0.000000

