
-------------------------------------------------------------------------
|    ___ _   _ ___                                                      |
|   / __| | | |_  )   Release 7.1.1 "Blackbird"                       |
|   \__ \ |_| |/ /                                                    |
|   |___/\___//___|   Suite (Computational Fluid Dynamics Code)        |
|                                                                       |
-------------------------------------------------------------------------
| SU2 Project Website: https://su2code.github.io                        |
|                                                                       |
| The SU2 Project is maintained by the SU2 Foundation                   |
| (http://su2foundation.org)                                            |
-------------------------------------------------------------------------
| Copyright 2012-2020, SU2 Contributors                                 |
|                                                                       |
| SU2 is free software; you can redistribute it and/or                  |
| modify it under the terms of the GNU Lesser General Public            |
| License as published by the Free Software Foundation; either          |
| version 2.1 of the License, or (at your option) any later version.    |
|                                                                       |
| SU2 is distributed in the hope that it will be useful,                |
| but WITHOUT ANY WARRANTY; without even the implied warranty of        |
| MERCHANTABILITY or FITNESS FOR A PARTICULAR PURPOSE. See the GNU      |
| Lesser General Public License for more details.                       |
|                                                                       |
| You should have received a copy of the GNU Lesser General Public      |
| License along with SU2. If not, see <http://www.gnu.org/licenses/>.   |
-------------------------------------------------------------------------

Problem definition:

Compressible Euler equations.
Mach number: 0.3.
Angle of attack (AoA): 0.5 deg, and angle of sideslip (AoS): 0 deg.
Non-Dimensional simulation (V=1.0, Rho=1.0, T=1.0 at the farfield).
The reference area is 122.4 m^2.
The reference length is 4.193 m.


Inviscid flow: Computing density based on free-stream
temperature and pressure using the ideal gas law.
Force coefficients computed using free-stream values.
-- Input conditions:
Fluid Model: STANDARD_AIR 
Specific gas constant: 287.058 N.m/kg.K.
Specific gas constant (non-dim): 7.93651
Specific Heat Ratio: 1.4000 
Free-stream static pressure: 101325 Pa.
Free-stream total pressure: 107853 Pa.
Free-stream temperature: 288.15 K.
Free-stream total temperature: 293.337 K.
Free-stream density: 1.22498 kg/m^3.
Free-stream velocity: (102.089, 0, 0) m/s. Magnitude: 102.089 m/s.
Free-stream total energy per unit mass: 212000 m^2/s^2.
-- Resulting non-dimensional state:
Mach number (non-dim): 0.3
Specific gas constant (non-dim): 7.93651
Free-stream temperature (non-dim): 1
Free-stream pressure (non-dim): 7.93651
Free-stream density (non-dim): 1
Free-stream velocity (non-dim): (1, 0, 0). Magnitude: 1
Free-stream total energy per unit mass (non-dim): 20.3413


Forces breakdown:

Center of Pressure: X=1.500710Z+12.405567 m.

NOTE: Multiply forces by the non-dimensional factor: 61.200000, and the reference factor: 12766.950000
to obtain the dimensional force.

Total CL:       0.132688 | Pressure (   99%):    0.132688 | Friction (    0%):    0.000000 | Momentum (    0%):    0.000000
Total CD:       0.199127 | Pressure (   99%):    0.199127 | Friction (    0%):    0.000000 | Momentum (    0%):    0.000000
Total CSF:      0.010327 | Pressure (   99%):    0.010327 | Friction (    0%):    0.000000 | Momentum (    0%):    0.000000
Total CL/CD:    0.666351 | Pressure (   99%):    0.666351 | Friction (    0%):    0.000000 | Momentum (    0%):    0.000000
Total CMy:     -0.392577 | Pressure (  100%):   -0.392577 | Friction (    0%):    0.000000 | Momentum (    0%):    0.000000
Total CMz:      0.076315 | Pressure (   99%):    0.076315 | Friction (    0%):    0.000000 | Momentum (    0%):    0.000000
Total CFx:      0.199127 | Pressure (   99%):    0.199127 | Friction (    0%):    0.000000 | Momentum (    0%):    0.000000
Total CFy:      0.010327 | Pressure (   99%):    0.010327 | Friction (    0%):    0.000000 | Momentum (    0%):    0.000000
Total CFz:      0.132688 | Pressure (   99%):    0.132688 | Friction (    0%):    0.000000 | Momentum (    0%):    0.000000


Surface name: Wing1

Total CL    (  153%):    0.203989 | Pressure (   99%):    0.203989 | Friction (    0%):    0.000000 | Momentum (    0%):    0.000000
Total CD    (   29%):    0.059183 | Pressure (   99%):    0.059183 | Friction (    0%):    0.000000 | Momentum (    0%):    0.000000
Total CSF   (    1%):    0.000140 | Pressure (   99%):    0.000140 | Friction (    0%):    0.000000 | Momentum (    0%):    0.000000
Total CL/CD (  517%):    3.446766 | Pressure (   99%):    3.446766 | Friction (    0%):    0.000000 | Momentum (    0%):    0.000000
Total CMx   (  -17%):    0.001026 | Pressure (   99%):    0.001026 | Friction (    0%):    0.000000 | Momentum (    0%):    0.000000
Total CMy   (  216%):   -0.851418 | Pressure (  100%):   -0.851418 | Friction (    0%):    0.000000 | Momentum (    0%):    0.000000
Total CMz   (    0%):    0.000011 | Pressure (   99%):    0.000011 | Friction (    0%):    0.000000 | Momentum (    0%):    0.000000
Total CFx   (   29%):    0.059183 | Pressure (   99%):    0.059183 | Friction (    0%):    0.000000 | Momentum (    0%):    0.000000
Total CFy   (    1%):    0.000140 | Pressure (   99%):    0.000140 | Friction (    0%):    0.000000 | Momentum (    0%):    0.000000
Total CFz   (  153%):    0.203989 | Pressure (   99%):    0.203989 | Friction (    0%):    0.000000 | Momentum (    0%):    0.000000

